test/test_perturbation_outputs/pert_min_loss/pglib_opf_case2316_sdet.m
%% MATPOWER Case Format : Version 2
function mpc = pglib_opf_case2316_sdet
mpc.version = '2';

%%-----  Power Flow Data  -----%%
%% system MVA base
mpc.baseMVA = 100.0;
%% bus data
%    bus_i    type    Pd    Qd    Gs    Bs    area    Vm    Va    baseKV    zone    Vmax    Vmin
mpc.bus = [
	1	1	0.0	0.0	0.0	0.0	1	1.0	0.0	345.0	1	1.1	0.9				
	2	1	0.0	0.0	0.0	-7.13	1	1.0	0.0	345.0	1	1.1	0.9				
	3	1	2.78	1.91	0.0	0.0	1	1.0	0.0	345.0	1	1.1	0.9				
	4	1	0.0	0.0	0.0	-9.6	1	1.0	0.0	345.0	1	1.1	0.9				
	5	1	0.0	0.0	0.0	0.0	1	1.0	0.0	345.0	1	1.1	0.9				
	6	1	0.0	0.0	0.0	41.99	1	1.0	0.0	345.0	1	1.1	0.9				
	7	1	0.0	0.0	0.0	0.0	1	1.0	0.0	345.0	1	1.1	0.9				
	8	1	0.0	0.0	0.0	0.0	1	1.0	0.0	345.0	1	1.1	0.9				
	9	2	221.28	-103.64	0.0	0.0	1	1.0	0.0	345.0	1	1.1	0.9				
	10	2	41.52	73.01	0.0	-0.22999999999999998	1	1.0	0.0	345.0	1	1.1	0.9				
	11	2	12.509999999999998	7.51	0.0	-0.24	1	1.0	0.0	138.0	1	1.1	0.9				
	12	2	20.99	10.69	0.0	-0.53	1	1.0	0.0	138.0	1	1.1	0.9				
	13	1	6.329999999999999	2.49	0.0	0.0	1	1.0	0.0	138.0	1	1.1	0.9				
	14	1	20.44	7.84	0.0	0.0	1	1.0	0.0	138.0	1	1.1	0.9				
	15	1	0.43	0.1	0.0	0.0	1	1.0	0.0	138.0	1	1.1	0.9				
	16	1	0.0	0.0	0.0	0.0	1	1.0	0.0	138.0	1	1.1	0.9				
	17	1	10.68	4.62	0.0	0.0	1	1.0	0.0	138.0	1	1.1	0.9				
	18	1	2.46	0.8	0.0	0.0	1	1.0	0.0	138.0	1	1.1	0.9				
	19	1	1.5	0.5	0.0	0.0	1	1.0	0.0	138.0	1	1.1	0.9				
	20	1	20.54	-35.59	0.0	0.0	1	1.0	0.0	138.0	1	1.1	0.9				
	21	1	14.57	3.1	0.0	0.0	1	1.0	0.0	138.0	1	1.1	0.9				
	22	1	0.0	0.0	0.0	0.0	1	1.0	0.0	138.0	1	1.1	0.9				
	23	1	42.51	-12.869999999999997	0.0	0.0	1	1.0	0.0	138.0	1	1.1	0.9				
	24	2	8.54	5.02	0.0	0.0	1	1.0	0.0	138.0	1	1.1	0.9				
	25	1	0.0	-0.4	0.0	0.0	1	1.0	0.0	138.0	1	1.1	0.9				
	26	2	35.41	12.61	0.0	-0.32	1	1.0	0.0	138.0	1	1.1	0.9				
	27	1	4.49	1.5	0.0	0.0	1	1.0	0.0	138.0	1	1.1	0.9				
	28	1	0.0	0.0	0.0	0.0	1	1.0	0.0	138.0	1	1.1	0.9				
	29	1	9.51	3.71	0.0	0.0	1	1.0	0.0	138.0	1	1.1	0.9				
	30	1	0.0	0.0	0.0	0.0	1	1.0	0.0	138.0	1	1.1	0.9				
	31	1	4.91	1.71	0.0	0.0	1	1.0	0.0	138.0	1	1.1	0.9				
	32	1	7.049999999999999	3.51	0.0	-1.31	1	1.0	0.0	138.0	1	1.1	0.9				
	33	1	7.049999999999999	4.62	0.0	0.0	1	1.0	0.0	138.0	1	1.1	0.9				
	34	1	0.0	0.0	0.0	0.0	1	1.0	0.0	138.0	1	1.1	0.9				
	35	1	1.6	0.5	0.0	0.0	1	1.0	0.0	138.0	1	1.1	0.9				
	36	1	0.0	0.0	0.0	0.0	1	1.0	0.0	138.0	1	1.1	0.9				
	37	1	0.0	0.0	0.0	0.0	1	1.0	0.0	138.0	1	1.1	0.9				
	38	1	0.0	0.0	0.0	0.0	1	1.0	0.0	138.0	1	1.1	0.9				
	39	1	4.71	0.48	0.0	-0.49	1	1.0	0.0	138.0	1	1.1	0.9				
	40	1	0.0	0.0	0.0	0.0	1	1.0	0.0	138.0	1	1.1	0.9				
	41	1	1.71	0.6	0.0	0.0	1	1.0	0.0	138.0	1	1.1	0.9				
	42	1	6.09	0.9000000000000001	0.0	0.0	1	1.0	0.0	138.0	1	1.1	0.9				
	43	1	0.0	0.0	0.0	3.71	1	1.0	0.0	138.0	1	1.1	0.9				
	44	1	15.85	8.31	0.0	0.0	1	1.0	0.0	138.0	1	1.1	0.9				
	45	1	4.95	2.28	0.0	0.0	1	1.0	0.0	138.0	1	1.1	0.9				
	46	2	37.19	15.6	0.0	-0.35	1	1.0	0.0	138.0	1	1.1	0.9				
	47	1	11.71	4.19	0.0	0.0	1	1.0	0.0	138.0	1	1.1	0.9				
	48	1	0.0	0.15	0.0	0.0	1	1.0	0.0	138.0	1	1.1	0.9				
	49	1	17.92	4.21	0.0	-4.15	1	1.0	0.0	138.0	1	1.1	0.9				
	50	1	0.0	0.0	0.0	0.0	1	1.0	0.0	138.0	1	1.1	0.9				
	51	1	0.0	0.0	0.0	0.0	1	1.0	0.0	138.0	1	1.1	0.9				
	52	1	18.59	5.92	0.0	0.0	1	1.0	0.0	138.0	1	1.1	0.9				
	53	1	7.919999999999999	3.2199999999999998	0.0	-61.980000000000004	1	1.0	0.0	138.0	1	1.1	0.9				
	54	1	3.85	2.11	0.0	0.0	1	1.0	0.0	138.0	1	1.1	0.9				
	55	1	0.32	0.0	0.0	0.0	1	1.0	0.0	138.0	1	1.1	0.9				
	56	1	7.07	2.62	0.0	0.0	1	1.0	0.0	138.0	1	1.1	0.9				
	57	1	4.17	1.49	0.0	0.0	1	1.0	0.0	138.0	1	1.1	0.9				
	58	1	49.85	-5.88	0.0	0.0	1	1.0	0.0	138.0	1	1.1	0.9				
	59	1	6.63	2.23	0.0	0.0	1	1.0	0.0	138.0	1	1.1	0.9				
	60	1	1.5	0.4	0.0	0.0	1	1.0	0.0	138.0	1	1.1	0.9				
	61	1	8.98	24.27	0.0	0.0	1	1.0	0.0	138.0	1	1.1	0.9				
	62	1	0.0	0.0	0.0	0.0	1	1.0	0.0	138.0	1	1.1	0.9				
	63	1	4.7	1.55	0.0	0.0	1	1.0	0.0	138.0	1	1.1	0.9				
	64	1	2.35	0.8	0.0	0.0	1	1.0	0.0	138.0	1	1.1	0.9				
	65	1	2.14	0.7	0.0	0.0	1	1.0	0.0	138.0	1	1.1	0.9				
	66	1	7.39	2.73	0.0	0.0	1	1.0	0.0	138.0	1	1.1	0.9				
	67	1	9.65	3.73	0.0	3.71	1	1.0	0.0	138.0	1	1.1	0.9				
	68	2	17.2	33.81	0.0	0.0	1	1.0	0.0	138.0	1	1.1	0.9				
	69	1	0.0	0.0	0.0	-0.29	1	1.0	0.0	138.0	1	1.1	0.9				
	70	1	25.0	7.000000000000001	0.0	0.0	1	1.0	0.0	138.0	1	1.1	0.9				
	71	1	0.0	0.0	0.0	0.0	2	1.0	0.0	345.0	2	1.1	0.9				
	72	1	0.0	0.0	0.0	0.0	2	1.0	0.0	345.0	2	1.1	0.9				
	73	1	0.0	0.0	0.0	0.0	2	1.0	0.0	345.0	2	1.1	0.9				
	74	1	0.0	0.0	0.0	0.0	2	1.0	0.0	345.0	2	1.1	0.9				
	75	2	12.0	30.0	0.0	0.0	2	1.0	0.0	345.0	2	1.1	0.9				
	76	2	19.91	36.57	0.0	0.0	2	1.0	0.0	345.0	2	1.1	0.9				
	77	2	12.0	30.0	0.0	0.0	2	1.0	0.0	500.0	2	1.1	0.9				
	78	2	0.0	0.0	0.0	14.580000000000002	2	1.0	0.0	345.0	2	1.1	0.9				
	79	1	0.0	0.0	0.0	0.0	2	1.0	0.0	345.0	2	1.1	0.9				
	80	1	0.0	0.0	0.0	0.0	2	1.0	0.0	345.0	2	1.1	0.9				
	81	1	0.0	0.0	0.0	0.0	2	1.0	0.0	345.0	2	1.1	0.9				
	82	1	0.0	0.0	0.0	0.0	2	1.0	0.0	345.0	2	1.1	0.9				
	83	1	11.45	2.64	0.0	0.0	2	1.0	0.0	138.0	2	1.1	0.9				
	84	1	25.91	6.419999999999999	0.0	0.0	2	1.0	0.0	138.0	2	1.1	0.9				
	85	1	0.0	0.0	0.0	0.0	2	1.0	0.0	138.0	2	1.1	0.9				
	86	1	6.04	2.42	0.0	6.32	2	1.0	0.0	138.0	2	1.1	0.9				
	87	1	3.02	1.27	0.0	0.0	2	1.0	0.0	138.0	2	1.1	0.9				
	88	1	6.63	0.64	0.0	0.0	2	1.0	0.0	138.0	2	1.1	0.9				
	89	1	12.49	4.85	0.0	0.0	2	1.0	0.0	138.0	2	1.1	0.9				
	90	1	3.63	0.53	0.0	-0.02	2	1.0	0.0	138.0	2	1.1	0.9				
	91	1	3.54	1.16	0.0	0.0	2	1.0	0.0	138.0	2	1.1	0.9				
	92	2	19.22	32.9	0.0	0.0	2	1.0	0.0	138.0	2	1.1	0.9				
	93	1	0.0	0.0	0.0	0.0	2	1.0	0.0	138.0	2	1.1	0.9				
	94	1	2.29	0.84	0.0	0.0	2	1.0	0.0	138.0	2	1.1	0.9				
	95	2	4.69	1.91	0.0	3.0	2	1.0	0.0	138.0	2	1.1	0.9				
	96	1	0.1	-0.79	0.0	0.0	2	1.0	0.0	138.0	2	1.1	0.9				
	97	1	5.57	1.97	0.0	0.0	2	1.0	0.0	138.0	2	1.1	0.9				
	98	2	20.23	25.52	0.0	0.0	2	1.0	0.0	138.0	2	1.1	0.9				
	99	2	12.57	9.27	0.0	0.0	2	1.0	0.0	138.0	2	1.1	0.9				
	100	1	12.91	4.74	0.0	0.0	2	1.0	0.0	138.0	2	1.1	0.9				
	101	1	9.37	3.7900000000000005	0.0	0.0	2	1.0	0.0	138.0	2	1.1	0.9				
	102	1	14.16	5.69	0.0	0.0	2	1.0	0.0	138.0	2	1.1	0.9				
	103	1	11.4	3.74	0.0	0.0	2	1.0	0.0	138.0	2	1.1	0.9				
	104	1	10.41	3.8	0.0	0.0	2	1.0	0.0	138.0	2	1.1	0.9				
	105	1	0.0	0.0	0.0	0.42	2	1.0	0.0	138.0	2	1.1	0.9				
	106	1	0.0	0.0	0.0	0.0	2	1.0	0.0	138.0	2	1.1	0.9				
	107	1	5.49	0.64	0.0	0.0	2	1.0	0.0	138.0	2	1.1	0.9				
	108	1	6.87	2.0	0.0	0.0	2	1.0	0.0	138.0	2	1.1	0.9				
	109	1	5.62	2.32	0.0	0.0	2	1.0	0.0	138.0	2	1.1	0.9				
	110	1	4.16	1.69	0.0	0.0	2	1.0	0.0	138.0	2	1.1	0.9				
	111	1	1.46	0.53	0.0	0.0	2	1.0	0.0	138.0	2	1.1	0.9				
	112	2	1.79	0.76	0.0	0.42	2	1.0	0.0	138.0	2	1.1	0.9				
	113	1	1.67	0.74	0.0	0.0	2	1.0	0.0	138.0	2	1.1	0.9				
	114	1	3.11	0.86	0.0	0.0	2	1.0	0.0	138.0	2	1.1	0.9				
	115	1	4.77	0.54	0.0	0.0	2	1.0	0.0	138.0	2	1.1	0.9				
	116	1	7.08	1.79	0.0	0.0	2	1.0	0.0	138.0	2	1.1	0.9				
	117	1	11.45	4.64	0.0	6.660000000000001	2	1.0	0.0	138.0	2	1.1	0.9				
	118	1	8.43	3.37	0.0	0.0	2	1.0	0.0	138.0	2	1.1	0.9				
	119	1	6.77	-1.7000000000000002	0.0	0.0	2	1.0	0.0	138.0	2	1.1	0.9				
	120	2	21.87	12.659999999999998	0.0	0.0	2	1.0	0.0	138.0	2	1.1	0.9				
	121	1	24.98	23.19	0.0	0.0	2	1.0	0.0	138.0	2	1.1	0.9				
	122	1	14.57	4.22	0.0	0.0	2	1.0	0.0	138.0	2	1.1	0.9				
	123	1	16.13	4.74	0.0	0.0	2	1.0	0.0	138.0	2	1.1	0.9				
	124	1	5.34	1.77	0.0	0.0	2	1.0	0.0	138.0	2	1.1	0.9				
	125	2	5.67	5.84	0.0	0.0	2	1.0	0.0	138.0	2	1.1	0.9				
	126	1	7.7	3.16	0.0	0.0	2	1.0	0.0	138.0	2	1.1	0.9				
	127	2	0.0	0.0	0.0	0.0	2	1.0	0.0	138.0	2	1.1	0.9				
	128	2	7.400000000000001	2.54	0.0	0.0	2	1.0	0.0	138.0	2	1.1	0.9				
	129	1	1.2	0.4699999999999999	0.0	0.0	2	1.0	0.0	138.0	2	1.1	0.9				
	130	1	5.72	2.32	0.0	0.0	2	1.0	0.0	138.0	2	1.1	0.9				
	131	1	5.83	2.32	0.0	0.0	2	1.0	0.0	138.0	2	1.1	0.9				
	132	1	6.25	1.7399999999999998	0.0	0.0	2	1.0	0.0	138.0	2	1.1	0.9				
	133	1	6.25	1.7399999999999998	0.0	0.0	2	1.0	0.0	138.0	2	1.1	0.9				
	134	1	0.63	0.21	0.0	0.0	2	1.0	0.0	138.0	2	1.1	0.9				
	135	2	13.13	5.28	0.0	0.0	2	1.0	0.0	138.0	2	1.1	0.9				
	136	1	9.37	3.61	0.0	0.0	2	1.0	0.0	138.0	2	1.1	0.9				
	137	1	4.68	1.9	0.0	0.0	2	1.0	0.0	138.0	2	1.1	0.9				
	138	2	6.460000000000001	2.54	0.0	4.2	2	1.0	0.0	138.0	2	1.1	0.9				
	139	1	21.76	6.1	0.0	0.0	2	1.0	0.0	138.0	2	1.1	0.9				
	140	1	2.08	0.84	0.0	0.0	2	1.0	0.0	138.0	2	1.1	0.9				
	141	1	2.71	1.05	0.0	0.0	2	1.0	0.0	138.0	2	1.1	0.9				
	142	1	4.06	0.53	0.0	0.0	2	1.0	0.0	138.0	2	1.1	0.9				
	143	1	0.0	0.0	0.0	0.0	2	1.0	0.0	138.0	2	1.1	0.9				
	144	1	0.0	0.0	0.0	0.0	2	1.0	0.0	138.0	2	1.1	0.9				
	145	1	0.0	0.0	0.0	0.0	2	1.0	0.0	138.0	2	1.1	0.9				
	146	1	8.43	3.06	0.0	0.0	2	1.0	0.0	138.0	2	1.1	0.9				
	147	1	3.75	0.84	0.0	0.0	2	1.0	0.0	138.0	2	1.1	0.9				
	148	1	28.21	10.33	0.0	0.0	2	1.0	0.0	138.0	2	1.1	0.9				
	149	1	1.56	0.63	0.0	0.0	2	1.0	0.0	138.0	2	1.1	0.9				
	150	2	634.0	0.0	0.0	0.0	2	1.0	0.0	345.0	2	1.1	0.9				
	151	1	81.5	85.9	0.0	0.0	3	1.0	0.0	345.0	3	1.1	0.9				
	152	1	0.0	0.0	0.0	0.0	3	1.0	0.0	500.0	3	1.1	0.9				
	153	1	0.0	0.0	0.0	-11.35	3	1.0	0.0	500.0	3	1.1	0.9				
	154	1	0.0	0.0	0.0	0.0	3	1.0	0.0	500.0	3	1.1	0.9				
	155	1	0.0	0.0	0.0	0.0	3	1.0	0.0	500.0	3	1.1	0.9				
	156	1	0.0	0.0	0.0	75.29	3	1.0	0.0	500.0	3	1.1	0.9				
	157	1	0.0	0.0	0.0	-27.07	3	1.0	0.0	345.0	3	1.1	0.9				
	158	1	0.0	0.0	0.0	-322.11	3	1.0	0.0	500.0	3	1.1	0.9				
	159	1	0.0	0.0	0.0	0.0	3	1.0	0.0	500.0	3	1.1	0.9				
	160	1	0.0	0.0	0.0	0.0	3	1.0	0.0	500.0	3	1.1	0.9				
	161	1	0.0	0.0	0.0	-124.24	3	1.0	0.0	500.0	3	1.1	0.9				
	162	1	34.71	60.15999999999999	0.0	0.0	3	1.0	0.0	500.0	3	1.1	0.9				
	163	1	0.0	0.0	0.0	70.0	3	1.0	0.0	500.0	3	1.1	0.9				
	164	1	0.0	0.0	0.0	0.0	3	1.0	0.0	500.0	3	1.1	0.9				
	165	2	11.0	40.0	0.0	0.0	3	1.0	0.0	500.0	3	1.1	0.9				
	166	2	5.0	10.0	0.0	0.0	3	1.0	0.0	500.0	3	1.1	0.9				
	167	1	6.93	3.11	0.0	0.0	3	1.0	0.0	138.0	3	1.1	0.9				
	168	2	14.649999999999999	1.0	0.0	0.0	3	1.0	0.0	138.0	3	1.1	0.9				
	169	1	8.14	1.32	0.0	0.0	3	1.0	0.0	138.0	3	1.1	0.9				
	170	1	14.17	4.22	0.0	0.0	3	1.0	0.0	138.0	3	1.1	0.9				
	171	2	4.22	1.0	0.0	0.0	3	1.0	0.0	138.0	3	1.1	0.9				
	172	1	131.91	57.06	0.0	0.0	3	1.0	0.0	138.0	3	1.1	0.9				
	173	1	0.0	0.0	0.0	48.6	3	1.0	0.0	32.0	3	1.1	0.9				
	174	1	0.0	0.0	0.0	0.0	3	1.0	0.0	138.0	3	1.1	0.9				
	175	1	5.22	2.11	0.0	0.0	3	1.0	0.0	138.0	3	1.1	0.9				
	176	1	2.61	1.0	0.0	0.0	3	1.0	0.0	138.0	3	1.1	0.9				
	177	2	0.01	0.01	0.0	0.0	3	1.0	0.0	138.0	3	1.1	0.9				
	178	2	0.01	0.01	0.0	0.0	3	1.0	0.0	138.0	3	1.1	0.9				
	179	1	15.67	5.22	0.0	0.0	3	1.0	0.0	138.0	3	1.1	0.9				
	180	1	16.78	4.72	0.0	0.0	3	1.0	0.0	138.0	3	1.1	0.9				
	181	1	4.22	0.5	0.0	0.0	3	1.0	0.0	138.0	3	1.1	0.9				
	182	1	10.85	1.0	0.0	0.0	3	1.0	0.0	138.0	3	1.1	0.9				
	183	2	14.67	3.11	0.0	0.0	3	1.0	0.0	138.0	3	1.1	0.9				
	184	1	7.539999999999999	1.0	0.0	0.0	3	1.0	0.0	138.0	3	1.1	0.9				
	185	2	2.11	0.5	0.0	0.0	3	1.0	0.0	138.0	3	1.1	0.9				
	186	1	5.73	1.0	0.0	0.0	3	1.0	0.0	138.0	3	1.1	0.9				
	187	1	0.0	0.0	0.0	60.0	3	1.0	0.0	16.0	3	1.1	0.9				
	188	2	9.45	2.61	0.0	0.0	3	1.0	0.0	138.0	3	1.1	0.9				
	189	1	4.22	1.0	0.0	0.0	3	1.0	0.0	138.0	3	1.1	0.9				
	190	1	23.11	8.34	0.0	0.0	3	1.0	0.0	138.0	3	1.1	0.9				
	191	1	15.67	2.61	0.0	0.0	3	1.0	0.0	138.0	3	1.1	0.9				
	192	1	19.89	6.83	0.0	0.0	3	1.0	0.0	138.0	3	1.1	0.9				
	193	1	8.34	2.71	0.0	0.0	3	1.0	0.0	138.0	3	1.1	0.9				
	194	2	16.78	6.329999999999999	0.0	0.0	3	1.0	0.0	138.0	3	1.1	0.9				
	195	2	14.67	3.11	0.0	0.0	3	1.0	0.0	138.0	3	1.1	0.9				
	196	1	5.8	-0.22	0.0	0.0	3	1.0	0.0	138.0	3	1.1	0.9				
	197	1	7.33	2.11	0.0	0.0	3	1.0	0.0	138.0	3	1.1	0.9				
	198	1	5.22	0.5	0.0	0.0	3	1.0	0.0	138.0	3	1.1	0.9				
	199	1	0.0	0.0	0.0	-16.07	3	1.0	0.0	138.0	3	1.1	0.9				
	200	1	0.0	0.0	0.0	-2.01	3	1.0	0.0	138.0	3	1.1	0.9				
...
];

%% generator data
%    bus    Pg    Qg    Qmax    Qmin    Vg    mBase    status    Pmax    Pmin    Pc1    Pc2    Qc1min    Qc1max    Qc2min    Qc2max    ramp_agc    ramp_10    ramp_30    ramp_q    apf
mpc.gen = [
	9	195.625	50.0	135.0	-35.0	1.0	252.98	1	256.25	135.0	0.0	0.0	0.0	0.0	0.0	0.0	0.0	0.0	0.0	0.0	256.25				
	10	299.04	50.0	135.0	-35.0	1.0	267.71	1	426.56	171.52	0.0	0.0	0.0	0.0	0.0	0.0	0.0	0.0	0.0	0.0	426.557				
	10	311.55	52.5	140.0	-35.0	1.0	256.16	1	444.2200000000001	178.88	0.0	0.0	0.0	0.0	0.0	0.0	0.0	0.0	0.0	0.0	444.218				
	11	0.0	0.0	16.0	-16.0	1.0	48.0	0	55.00000000000001	40.0	0.0	0.0	0.0	0.0	0.0	0.0	0.0	0.0	0.0	0.0	55.0				
	11	45.415	17.5	45.0	-10.0	1.0	55.0	1	55.00000000000001	35.83	0.0	0.0	0.0	0.0	0.0	0.0	0.0	0.0	0.0	0.0	55.0				
	12	45.415	17.5	45.0	-10.0	1.0	55.0	1	55.00000000000001	35.83	0.0	0.0	0.0	0.0	0.0	0.0	0.0	0.0	0.0	0.0	55.0				
	20	0.0	0.0	16.67	-16.67	1.0	50.0	0	50.0	38.0	0.0	0.0	0.0	0.0	0.0	0.0	0.0	0.0	0.0	0.0	50.0				
	24	37.3	91.79	192.0	-8.42	1.0	100.0	1	74.5	0.1	0.0	0.0	0.0	0.0	0.0	0.0	0.0	0.0	0.0	0.0	74.505				
	25	0.0	0.0	8.0	-8.0	1.0	24.0	0	24.0	5.0	0.0	0.0	0.0	0.0	0.0	0.0	0.0	0.0	0.0	0.0	24.0				
	25	0.0	0.0	5.67	-5.67	1.0	17.0	0	17.0	4.0	0.0	0.0	0.0	0.0	0.0	0.0	0.0	0.0	0.0	0.0	17.0				
	26	9.0	-2.5	178.0	-183.0	1.0	15.0	1	15.0	3.0	0.0	0.0	0.0	0.0	0.0	0.0	0.0	0.0	0.0	0.0	15.0				
	26	0.0	0.0	5.0	-5.0	1.0	15.0	0	15.0	3.0	0.0	0.0	0.0	0.0	0.0	0.0	0.0	0.0	0.0	0.0	15.0				
	26	0.0	0.0	5.0	-5.0	1.0	15.0	0	15.0	3.0	0.0	0.0	0.0	0.0	0.0	0.0	0.0	0.0	0.0	0.0	15.0				
	32	0.0	0.0	33.33	-33.33	1.0	100.0	0	265.0	6.01	0.0	0.0	0.0	0.0	0.0	0.0	0.0	0.0	0.0	0.0	265.0				
	46	0.0	0.0	4.0	-4.0	1.0	12.0	0	12.0	0.0	0.0	0.0	0.0	0.0	0.0	0.0	0.0	0.0	0.0	0.0	12.0				
	46	6.0	3.5000000000000004	184.0	-177.0	1.0	12.0	1	12.0	0.0	0.0	0.0	0.0	0.0	0.0	0.0	0.0	0.0	0.0	0.0	12.0				
	53	0.0	0.0	33.33	-33.33	1.0	100.0	0	27.67	12.67	0.0	0.0	0.0	0.0	0.0	0.0	0.0	0.0	0.0	0.0	27.674				
	67	0.0	0.0	33.33	-33.33	1.0	100.0	0	268.0	3.3300000000000005	0.0	0.0	0.0	0.0	0.0	0.0	0.0	0.0	0.0	0.0	268.0				
	68	195.625	52.5	140.0	-35.0	1.0	267.05	1	256.25	135.0	0.0	0.0	0.0	0.0	0.0	0.0	0.0	0.0	0.0	0.0	256.25				
	75	170.0	58.875	138.75	-21.0	1.0	253.76	1	204.99999999999997	135.0	0.0	0.0	0.0	0.0	0.0	0.0	0.0	0.0	0.0	0.0	205.0				
	76	0.0	0.0	74.0	-74.0	1.0	222.0	0	222.00000000000003	90.0	0.0	0.0	0.0	0.0	0.0	0.0	0.0	0.0	0.0	0.0	222.0				
	76	0.0	0.0	68.33	-68.33	1.0	205.0	0	204.99999999999997	135.0	0.0	0.0	0.0	0.0	0.0	0.0	0.0	0.0	0.0	0.0	205.0				
	76	166.0	44.0	119.0	-31.0	1.0	232.0	1	231.99999999999997	100.0	0.0	0.0	0.0	0.0	0.0	0.0	0.0	0.0	0.0	0.0	232.0				
	77	170.0	56.25	127.49999999999999	-15.0	1.0	268.92	1	250.0	90.0	0.0	0.0	0.0	0.0	0.0	0.0	0.0	0.0	0.0	0.0	250.0				
	77	183.53	17.175	171.78	-137.43	1.0	100.0	1	247.43	119.63	0.0	0.0	0.0	0.0	0.0	0.0	0.0	0.0	0.0	0.0	247.434				
	78	120.17999999999999	-12.485	99.9	-124.87000000000002	1.0	100.0	1	173.85	66.51	0.0	0.0	0.0	0.0	0.0	0.0	0.0	0.0	0.0	0.0	173.855				
	90	0.0	0.0	33.33	-33.33	1.0	100.0	0	34.2	19.2	0.0	0.0	0.0	0.0	0.0	0.0	0.0	0.0	0.0	0.0	34.203				
	92	156.0	49.0	117.0	-19.0	1.0	222.0	1	222.00000000000003	90.0	0.0	0.0	0.0	0.0	0.0	0.0	0.0	0.0	0.0	0.0	222.0				
	95	143.5	14.000000000000002	197.0	-169.0	1.0	2.04	1	287.0	0.0	0.0	0.0	0.0	0.0	0.0	0.0	0.0	0.0	0.0	0.0	287.0				
	96	0.0	0.0	0.33	-0.33	1.0	1.0	0	274.0	0.0	0.0	0.0	0.0	0.0	0.0	0.0	0.0	0.0	0.0	0.0	274.0				
	98	37.935	-80.0	15.0	-175.0	1.0	65.75	1	65.87	10.0	0.0	0.0	0.0	0.0	0.0	0.0	0.0	0.0	0.0	0.0	65.875				
	98	134.5	8.0	191.0	-175.0	1.0	6.0	1	267.0	2.0	0.0	0.0	0.0	0.0	0.0	0.0	0.0	0.0	0.0	0.0	267.0				
	99	131.5	-1.0	178.0	-180.0	1.0	6.47	1	262.0	1.0	0.0	0.0	0.0	0.0	0.0	0.0	0.0	0.0	0.0	0.0	262.0				
	99	0.0	0.0	9.67	-9.67	1.0	29.0	0	36.0	21.0	0.0	0.0	0.0	0.0	0.0	0.0	0.0	0.0	0.0	0.0	36.0				
	112	139.0	5.0	179.0	-169.0	1.0	0.26	1	278.0	0.0	0.0	0.0	0.0	0.0	0.0	0.0	0.0	0.0	0.0	0.0	278.0				
	112	144.5	4.0	176.0	-168.0	1.0	1.36	1	288.0	1.0	0.0	0.0	0.0	0.0	0.0	0.0	0.0	0.0	0.0	0.0	288.0				
	120	12.5	8.0	190.0	-174.0	1.0	20.0	1	20.0	5.0	0.0	0.0	0.0	0.0	0.0	0.0	0.0	0.0	0.0	0.0	20.0				
	124	0.0	0.0	22.33	-22.33	1.0	67.0	0	67.0	40.0	0.0	0.0	0.0	0.0	0.0	0.0	0.0	0.0	0.0	0.0	67.0				
	125	52.5	-74.125	18.75	-167.0	1.0	65.0	1	65.0	40.0	0.0	0.0	0.0	0.0	0.0	0.0	0.0	0.0	0.0	0.0	65.0				
	127	15.5	6.0	189.0	-177.0	1.0	31.0	1	31.0	0.0	0.0	0.0	0.0	0.0	0.0	0.0	0.0	0.0	0.0	0.0	31.0				
	128	15.5	6.0	187.0	-175.0	1.0	31.0	1	31.0	0.0	0.0	0.0	0.0	0.0	0.0	0.0	0.0	0.0	0.0	0.0	31.0				
	135	143.5	-1.0	182.0	-184.0	1.0	2.03	1	286.0	1.0	0.0	0.0	0.0	0.0	0.0	0.0	0.0	0.0	0.0	0.0	286.0				
	136	0.0	0.0	1.33	-1.33	1.0	4.0	0	256.0	1.0	0.0	0.0	0.0	0.0	0.0	0.0	0.0	0.0	0.0	0.0	256.0				
	136	0.0	0.0	6.0	-6.0	1.0	18.0	0	18.0	3.0	0.0	0.0	0.0	0.0	0.0	0.0	0.0	0.0	0.0	0.0	18.0				
	136	0.0	0.0	18.67	-18.67	1.0	56.0	0	56.00000000000001	10.0	0.0	0.0	0.0	0.0	0.0	0.0	0.0	0.0	0.0	0.0	56.0				
	138	130.0	1.0	186.0	-184.0	1.0	0.24	1	260.0	0.0	0.0	0.0	0.0	0.0	0.0	0.0	0.0	0.0	0.0	0.0	260.0				
	150	134.0	3.0	183.0	-177.0	1.0	108.13	1	268.0	0.0	0.0	0.0	0.0	0.0	0.0	0.0	0.0	0.0	0.0	0.0	268.0				
	153	0.0	0.0	33.33	-33.33	1.0	100.0	0	137.96	122.97	0.0	0.0	0.0	0.0	0.0	0.0	0.0	0.0	0.0	0.0	137.965				
	157	0.0	0.0	33.33	-33.33	1.0	100.0	0	53.54	38.54	0.0	0.0	0.0	0.0	0.0	0.0	0.0	0.0	0.0	0.0	53.537				
	158	0.0	0.0	33.33	-33.33	1.0	100.0	0	284.08	269.08	0.0	0.0	0.0	0.0	0.0	0.0	0.0	0.0	0.0	0.0	284.075				
	161	0.0	0.0	33.33	-33.33	1.0	100.0	0	42.02	27.02	0.0	0.0	0.0	0.0	0.0	0.0	0.0	0.0	0.0	0.0	42.024				
	165	-10.5	21.5	105.0	-62.0	1.0	216.55	1	179.0	-200.0	0.0	0.0	0.0	0.0	0.0	0.0	0.0	0.0	0.0	0.0	179.0				
	165	-10.5	21.5	105.0	-62.0	1.0	179.0	1	179.0	-200.0	0.0	0.0	0.0	0.0	0.0	0.0	0.0	0.0	0.0	0.0	179.0				
	165	-10.5	27.500000000000004	130.0	-75.0	1.0	179.0	1	179.0	-200.0	0.0	0.0	0.0	0.0	0.0	0.0	0.0	0.0	0.0	0.0	179.0				
	166	-10.5	30.0	160.0	-100.0	1.0	179.0	1	179.0	-200.0	0.0	0.0	0.0	0.0	0.0	0.0	0.0	0.0	0.0	0.0	179.0				
	168	40.5	-72.0	35.0	-179.0	1.0	58.99	1	55.00000000000001	26.0	0.0	0.0	0.0	0.0	0.0	0.0	0.0	0.0	0.0	0.0	55.0				
	169	0.0	0.0	18.33	-18.33	1.0	55.0	0	55.00000000000001	26.0	0.0	0.0	0.0	0.0	0.0	0.0	0.0	0.0	0.0	0.0	55.0				
	171	142.0	3.5000000000000004	189.0	-182.0	1.0	0.36	1	284.0	0.0	0.0	0.0	0.0	0.0	0.0	0.0	0.0	0.0	0.0	0.0	284.0				
	177	9.0	14.499999999999998	199.0	-170.0	1.0	18.0	1	18.0	0.0	0.0	0.0	0.0	0.0	0.0	0.0	0.0	0.0	0.0	0.0	18.0				
	178	11.0	12.0	189.0	-165.0	1.0	22.0	1	22.0	0.0	0.0	0.0	0.0	0.0	0.0	0.0	0.0	0.0	0.0	0.0	22.0				
	183	131.0	-2.0	180.0	-184.0	1.0	0.24	1	262.0	0.0	0.0	0.0	0.0	0.0	0.0	0.0	0.0	0.0	0.0	0.0	262.0				
	185	137.375	0.0	31.53	-31.53	1.0	100.0	1	273.0	1.7500000000000002	0.0	0.0	0.0	0.0	0.0	0.0	0.0	0.0	0.0	0.0	273.0				
	188	150.0	7.000000000000001	193.0	-179.0	1.0	2.0	1	299.0	1.0	0.0	0.0	0.0	0.0	0.0	0.0	0.0	0.0	0.0	0.0	299.0				
	194	142.0	2.5	189.0	-184.0	1.0	1.0	1	284.0	0.0	0.0	0.0	0.0	0.0	0.0	0.0	0.0	0.0	0.0	0.0	284.0				
	195	128.0	6.5	183.0	-170.0	1.0	1.08	1	256.0	0.0	0.0	0.0	0.0	0.0	0.0	0.0	0.0	0.0	0.0	0.0	256.0				
	201	145.5	5.0	188.0	-178.0	1.0	0.12	1	291.0	0.0	0.0	0.0	0.0	0.0	0.0	0.0	0.0	0.0	0.0	0.0	291.0				
	207	147.0	9.5	197.0	-178.0	1.0	9.0	1	294.0	0.0	0.0	0.0	0.0	0.0	0.0	0.0	0.0	0.0	0.0	0.0	294.0				
	209	130.5	2.0	185.0	-181.0	1.0	0.24	1	261.0	0.0	0.0	0.0	0.0	0.0	0.0	0.0	0.0	0.0	0.0	0.0	261.0				
	217	117.385	0.0	51.28	-51.28	1.0	100.0	1	171.02	63.74999999999999	0.0	0.0	0.0	0.0	0.0	0.0	0.0	0.0	0.0	0.0	171.015				
	223	194.385	70.0	150.0	-10.0	1.0	282.49	1	268.77	120.0	0.0	0.0	0.0	0.0	0.0	0.0	0.0	0.0	0.0	0.0	268.77				
	224	194.375	55.00000000000001	120.0	-10.0	1.0	281.34	1	268.75	120.0	0.0	0.0	0.0	0.0	0.0	0.0	0.0	0.0	0.0	0.0	268.75				
	225	195.625	66.875	168.75	-35.0	1.0	252.98	1	256.25	135.0	0.0	0.0	0.0	0.0	0.0	0.0	0.0	0.0	0.0	0.0	256.25				
	227	0.0	0.0	45.0	-45.0	1.0	135.0	0	135.0	-135.0	0.0	0.0	0.0	0.0	0.0	0.0	0.0	0.0	0.0	0.0	135.0				
	227	0.0	0.0	45.0	-45.0	1.0	135.0	0	135.0	-135.0	0.0	0.0	0.0	0.0	0.0	0.0	0.0	0.0	0.0	0.0	135.0				
	228	0.0	0.0	45.0	-45.0	1.0	135.0	0	135.0	-135.0	0.0	0.0	0.0	0.0	0.0	0.0	0.0	0.0	0.0	0.0	135.0				
	228	0.0	0.0	45.0	-45.0	1.0	135.0	0	135.0	-135.0	0.0	0.0	0.0	0.0	0.0	0.0	0.0	0.0	0.0	0.0	135.0				
	235	0.0	0.0	16.67	-16.67	1.0	50.0	0	50.0	38.0	0.0	0.0	0.0	0.0	0.0	0.0	0.0	0.0	0.0	0.0	50.0				
	235	0.0	0.0	16.67	-16.67	1.0	50.0	0	50.0	38.0	0.0	0.0	0.0	0.0	0.0	0.0	0.0	0.0	0.0	0.0	50.0				
	235	0.0	0.0	16.67	-16.67	1.0	50.0	0	50.0	38.0	0.0	0.0	0.0	0.0	0.0	0.0	0.0	0.0	0.0	0.0	50.0				
	236	0.0	0.0	16.67	-16.67	1.0	50.0	0	50.0	38.0	0.0	0.0	0.0	0.0	0.0	0.0	0.0	0.0	0.0	0.0	50.0				
	245	0.0	0.0	33.33	-33.33	1.0	100.0	0	295.0	0.12	0.0	0.0	0.0	0.0	0.0	0.0	0.0	0.0	0.0	0.0	295.0				
	246	194.375	55.00000000000001	120.0	-10.0	1.0	273.78	1	268.75	120.0	0.0	0.0	0.0	0.0	0.0	0.0	0.0	0.0	0.0	0.0	268.75				
	248	36.96	0.0	22.61	-22.61	1.0	100.0	1	60.35	13.570000000000002	0.0	0.0	0.0	0.0	0.0	0.0	0.0	0.0	0.0	0.0	60.349				
	252	113.12500000000001	39.0	83.0	-5.0	1.0	160.45	1	156.25	70.0	0.0	0.0	0.0	0.0	0.0	0.0	0.0	0.0	0.0	0.0	156.25				
	252	97.5	39.0	83.0	-5.0	1.0	143.77	1	125.0	70.0	0.0	0.0	0.0	0.0	0.0	0.0	0.0	0.0	0.0	0.0	125.0				
	274	148.5	-2.0	180.0	-184.0	1.0	42.43	1	297.0	0.0	0.0	0.0	0.0	0.0	0.0	0.0	0.0	0.0	0.0	0.0	297.0				
	277	0.0	0.0	33.33	-33.33	1.0	100.0	0	137.96	122.97	0.0	0.0	0.0	0.0	0.0	0.0	0.0	0.0	0.0	0.0	137.965				
	281	0.0	0.0	33.33	-33.33	1.0	100.0	0	53.54	38.54	0.0	0.0	0.0	0.0	0.0	0.0	0.0	0.0	0.0	0.0	53.537				
	282	0.0	0.0	33.33	-33.33	1.0	100.0	0	284.08	269.08	0.0	0.0	0.0	0.0	0.0	0.0	0.0	0.0	0.0	0.0	284.075				
	285	0.0	0.0	33.33	-33.33	1.0	100.0	0	42.02	27.02	0.0	0.0	0.0	0.0	0.0	0.0	0.0	0.0	0.0	0.0	42.024				
	289	-10.5	21.5	105.0	-62.0	1.0	216.55	1	179.0	-200.0	0.0	0.0	0.0	0.0	0.0	0.0	0.0	0.0	0.0	0.0	179.0				
	289	-10.5	21.5	105.0	-62.0	1.0	179.0	1	179.0	-200.0	0.0	0.0	0.0	0.0	0.0	0.0	0.0	0.0	0.0	0.0	179.0				
	289	-10.5	27.500000000000004	130.0	-75.0	1.0	179.0	1	179.0	-200.0	0.0	0.0	0.0	0.0	0.0	0.0	0.0	0.0	0.0	0.0	179.0				
	290	-10.5	30.0	160.0	-100.0	1.0	179.0	1	179.0	-200.0	0.0	0.0	0.0	0.0	0.0	0.0	0.0	0.0	0.0	0.0	179.0				
	292	40.5	-71.0	35.0	-177.0	1.0	58.99	1	55.00000000000001	26.0	0.0	0.0	0.0	0.0	0.0	0.0	0.0	0.0	0.0	0.0	55.0				
	293	0.0	0.0	18.33	-18.33	1.0	55.0	0	55.00000000000001	26.0	0.0	0.0	0.0	0.0	0.0	0.0	0.0	0.0	0.0	0.0	55.0				
	295	148.0	5.0	188.0	-178.0	1.0	0.36	1	296.0	0.0	0.0	0.0	0.0	0.0	0.0	0.0	0.0	0.0	0.0	0.0	296.0				
	301	9.0	0.5	180.0	-179.0	1.0	18.0	1	18.0	0.0	0.0	0.0	0.0	0.0	0.0	0.0	0.0	0.0	0.0	0.0	18.0				
	302	11.0	6.5	186.0	-173.0	1.0	22.0	1	22.0	0.0	0.0	0.0	0.0	0.0	0.0	0.0	0.0	0.0	0.0	0.0	22.0				
	307	147.0	14.000000000000002	200.0	-172.0	1.0	0.24	1	294.0	0.0	0.0	0.0	0.0	0.0	0.0	0.0	0.0	0.0	0.0	0.0	294.0				
	309	0.0	0.0	33.33	-33.33	1.0	100.0	0	295.0	7.66	0.0	0.0	0.0	0.0	0.0	0.0	0.0	0.0	0.0	0.0	295.0				
	312	129.5	14.499999999999998	196.0	-167.0	1.0	2.0	1	258.0	1.0	0.0	0.0	0.0	0.0	0.0	0.0	0.0	0.0	0.0	0.0	258.0				
	318	149.5	-1.0	177.0	-179.0	1.0	1.0	1	299.0	0.0	0.0	0.0	0.0	0.0	0.0	0.0	0.0	0.0	0.0	0.0	299.0				
	319	132.0	11.5	196.0	-173.0	1.0	1.08	1	264.0	0.0	0.0	0.0	0.0	0.0	0.0	0.0	0.0	0.0	0.0	0.0	264.0				
	325	133.5	1.5	175.0	-172.0	1.0	0.12	1	267.0	0.0	0.0	0.0	0.0	0.0	0.0	0.0	0.0	0.0	0.0	0.0	267.0				
	331	127.0	1.0	176.0	-174.0	1.0	9.0	1	254.0	0.0	0.0	0.0	0.0	0.0	0.0	0.0	0.0	0.0	0.0	0.0	254.0				
	333	133.5	14.000000000000002	199.0	-171.0	1.0	0.24	1	267.0	0.0	0.0	0.0	0.0	0.0	0.0	0.0	0.0	0.0	0.0	0.0	267.0				
	343	201.99000000000004	0.0	363.58	-363.58	1.0	100.0	1	403.9800000000001	0.0	0.0	0.0	0.0	0.0	0.0	0.0	0.0	0.0	0.0	0.0	403.976				
	344	201.99000000000004	0.0	363.58	-363.58	1.0	100.0	1	403.9800000000001	0.0	0.0	0.0	0.0	0.0	0.0	0.0	0.0	0.0	0.0	0.0	403.976				
	345	202.01	0.0	363.62	-363.62	1.0	100.0	1	404.02	0.0	0.0	0.0	0.0	0.0	0.0	0.0	0.0	0.0	0.0	0.0	404.019				
	347	183.75	0.0	330.75	-330.75	1.0	100.0	1	367.5	0.0	0.0	0.0	0.0	0.0	0.0	0.0	0.0	0.0	0.0	0.0	367.5				
	348	0.0	0.0	33.33	-33.33	1.0	100.0	0	635.08	620.08	0.0	0.0	0.0	0.0	0.0	0.0	0.0	0.0	0.0	0.0	635.08				
	349	135.0	0.0	194.4	-194.4	1.0	100.0	1	270.0	0.0	0.0	0.0	0.0	0.0	0.0	0.0	0.0	0.0	0.0	0.0	270.0				
	350	135.0	0.0	194.4	-194.4	1.0	100.0	1	270.0	0.0	0.0	0.0	0.0	0.0	0.0	0.0	0.0	0.0	0.0	0.0	270.0				
	351	135.0	0.0	194.4	-194.4	1.0	100.0	1	270.0	0.0	0.0	0.0	0.0	0.0	0.0	0.0	0.0	0.0	0.0	0.0	270.0				
	352	135.0	0.0	194.4	-194.4	1.0	100.0	1	270.0	0.0	0.0	0.0	0.0	0.0	0.0	0.0	0.0	0.0	0.0	0.0	270.0				
	353	151.875	0.0	218.7	-218.7	1.0	100.0	1	303.75	0.0	0.0	0.0	0.0	0.0	0.0	0.0	0.0	0.0	0.0	0.0	303.75				
	354	151.875	0.0	218.7	-218.7	1.0	100.0	1	303.75	0.0	0.0	0.0	0.0	0.0	0.0	0.0	0.0	0.0	0.0	0.0	303.75				
	355	135.565	0.0	195.21	-195.21	1.0	100.0	1	271.13	0.0	0.0	0.0	0.0	0.0	0.0	0.0	0.0	0.0	0.0	0.0	271.125				
	356	135.565	0.0	195.21	-195.21	1.0	100.0	1	271.13	0.0	0.0	0.0	0.0	0.0	0.0	0.0	0.0	0.0	0.0	0.0	271.125				
	357	135.565	0.0	195.21	-195.21	1.0	100.0	1	271.13	0.0	0.0	0.0	0.0	0.0	0.0	0.0	0.0	0.0	0.0	0.0	271.125				
	358	173.4	0.0	312.12	-312.12	1.0	100.0	1	346.8	0.0	0.0	0.0	0.0	0.0	0.0	0.0	0.0	0.0	0.0	0.0	346.8				
	360	198.96	0.0	358.13	-358.13	1.0	100.0	1	397.92	0.0	0.0	0.0	0.0	0.0	0.0	0.0	0.0	0.0	0.0	0.0	397.923				
	361	198.96	0.0	358.13	-358.13	1.0	100.0	1	397.92	0.0	0.0	0.0	0.0	0.0	0.0	0.0	0.0	0.0	0.0	0.0	397.923				
	362	198.96	0.0	358.13	-358.13	1.0	100.0	1	397.92	0.0	0.0	0.0	0.0	0.0	0.0	0.0	0.0	0.0	0.0	0.0	397.923				
	364	181.875	0.0	327.38	-327.38	1.0	100.0	1	363.75	0.0	0.0	0.0	0.0	0.0	0.0	0.0	0.0	0.0	0.0	0.0	363.75				
	365	181.875	0.0	327.38	-327.38	1.0	100.0	1	363.75	0.0	0.0	0.0	0.0	0.0	0.0	0.0	0.0	0.0	0.0	0.0	363.75				
	366	109.68500000000002	0.0	157.95	-157.95	1.0	100.0	1	219.37000000000003	0.0	0.0	0.0	0.0	0.0	0.0	0.0	0.0	0.0	0.0	0.0	219.375				
	367	109.68500000000002	0.0	157.95	-157.95	1.0	100.0	1	219.37000000000003	0.0	0.0	0.0	0.0	0.0	0.0	0.0	0.0	0.0	0.0	0.0	219.375				
	374	0.0	0.0	33.33	-33.33	1.0	100.0	0	1274.13	1259.13	0.0	0.0	0.0	0.0	0.0	0.0	0.0	0.0	0.0	0.0	1274.13				
	379	638.135	-10.62	116.28	-137.52	1.0	100.0	1	781.58	494.69000000000005	0.0	0.0	0.0	0.0	0.0	0.0	0.0	0.0	0.0	0.0	781.582				
	385	392.03	0.0	38.05	-38.05	1.0	100.0	1	470.43999999999994	313.62	0.0	0.0	0.0	0.0	0.0	0.0	0.0	0.0	0.0	0.0	470.436				
	392	203.325	0.0	365.98	-365.98	1.0	100.0	1	406.65	0.0	0.0	0.0	0.0	0.0	0.0	0.0	0.0	0.0	0.0	0.0	406.648				
	393	203.125	0.0	365.63	-365.63	1.0	100.0	1	406.25	0.0	0.0	0.0	0.0	0.0	0.0	0.0	0.0	0.0	0.0	0.0	406.252				
	394	203.30500000000004	0.0	365.94	-365.94	1.0	100.0	1	406.61000000000007	0.0	0.0	0.0	0.0	0.0	0.0	0.0	0.0	0.0	0.0	0.0	406.605				
	395	203.27	0.0	365.89	-365.89	1.0	100.0	1	406.54	0.0	0.0	0.0	0.0	0.0	0.0	0.0	0.0	0.0	0.0	0.0	406.539				
	397	183.75	0.0	330.75	-330.75	1.0	100.0	1	367.5	0.0	0.0	0.0	0.0	0.0	0.0	0.0	0.0	0.0	0.0	0.0	367.5				
	399	183.75	0.0	330.75	-330.75	1.0	100.0	1	367.5	0.0	0.0	0.0	0.0	0.0	0.0	0.0	0.0	0.0	0.0	0.0	367.5				
	400	183.75	0.0	330.75	-330.75	1.0	100.0	1	367.5	0.0	0.0	0.0	0.0	0.0	0.0	0.0	0.0	0.0	0.0	0.0	367.5				
	402	135.0	0.0	194.4	-194.4	1.0	100.0	1	270.0	0.0	0.0	0.0	0.0	0.0	0.0	0.0	0.0	0.0	0.0	0.0	270.0				
	403	135.0	0.0	194.4	-194.4	1.0	100.0	1	270.0	0.0	0.0	0.0	0.0	0.0	0.0	0.0	0.0	0.0	0.0	0.0	270.0				
	404	135.0	0.0	194.4	-194.4	1.0	100.0	1	270.0	0.0	0.0	0.0	0.0	0.0	0.0	0.0	0.0	0.0	0.0	0.0	270.0				
	405	135.0	0.0	194.4	-194.4	1.0	100.0	1	270.0	0.0	0.0	0.0	0.0	0.0	0.0	0.0	0.0	0.0	0.0	0.0	270.0				
	406	151.875	0.0	218.7	-218.7	1.0	100.0	1	303.75	0.0	0.0	0.0	0.0	0.0	0.0	0.0	0.0	0.0	0.0	0.0	303.75				
	407	151.875	0.0	218.7	-218.7	1.0	100.0	1	303.75	0.0	0.0	0.0	0.0	0.0	0.0	0.0	0.0	0.0	0.0	0.0	303.75				
	408	135.565	0.0	195.21	-195.21	1.0	100.0	1	271.13	0.0	0.0	0.0	0.0	0.0	0.0	0.0	0.0	0.0	0.0	0.0	271.125				
	409	135.565	0.0	195.21	-195.21	1.0	100.0	1	271.13	0.0	0.0	0.0	0.0	0.0	0.0	0.0	0.0	0.0	0.0	0.0	271.125				
	410	135.565	0.0	195.21	-195.21	1.0	100.0	1	271.13	0.0	0.0	0.0	0.0	0.0	0.0	0.0	0.0	0.0	0.0	0.0	271.125				
	411	173.4	0.0	312.12	-312.12	1.0	100.0	1	346.8	0.0	0.0	0.0	0.0	0.0	0.0	0.0	0.0	0.0	0.0	0.0	346.8				
	414	158.44	0.0	228.14999999999998	-228.14999999999998	1.0	100.0	1	316.88	0.0	0.0	0.0	0.0	0.0	0.0	0.0	0.0	0.0	0.0	0.0	316.875				
	415	158.44	0.0	228.14999999999998	-228.14999999999998	1.0	100.0	1	316.88	0.0	0.0	0.0	0.0	0.0	0.0	0.0	0.0	0.0	0.0	0.0	316.875				
	416	158.44	0.0	228.14999999999998	-228.14999999999998	1.0	100.0	1	316.88	0.0	0.0	0.0	0.0	0.0	0.0	0.0	0.0	0.0	0.0	0.0	316.875				
	417	196.5	0.0	353.7	-353.7	1.0	100.0	1	393.0	0.0	0.0	0.0	0.0	0.0	0.0	0.0	0.0	0.0	0.0	0.0	393.0				
	418	163.125	0.0	234.90000000000003	-234.90000000000003	1.0	100.0	1	326.25	0.0	0.0	0.0	0.0	0.0	0.0	0.0	0.0	0.0	0.0	0.0	326.25				
	419	163.125	0.0	234.90000000000003	-234.90000000000003	1.0	100.0	1	326.25	0.0	0.0	0.0	0.0	0.0	0.0	0.0	0.0	0.0	0.0	0.0	326.25				
	420	157.5	0.0	226.8	-226.8	1.0	100.0	1	315.0	0.0	0.0	0.0	0.0	0.0	0.0	0.0	0.0	0.0	0.0	0.0	315.0				
	421	203.34500000000003	0.0	366.02	-366.02	1.0	100.0	1	406.69000000000005	0.0	0.0	0.0	0.0	0.0	0.0	0.0	0.0	0.0	0.0	0.0	406.694				
	423	41.25	0.0	59.4	-59.4	1.0	100.0	1	82.5	0.0	0.0	0.0	0.0	0.0	0.0	0.0	0.0	0.0	0.0	0.0	82.5				
	424	41.25	0.0	59.4	-59.4	1.0	100.0	1	82.5	0.0	0.0	0.0	0.0	0.0	0.0	0.0	0.0	0.0	0.0	0.0	82.5				
	425	42.19	0.0	60.75000000000001	-60.75000000000001	1.0	100.0	1	84.38	0.0	0.0	0.0	0.0	0.0	0.0	0.0	0.0	0.0	0.0	0.0	84.375				
	426	42.19	0.0	60.75000000000001	-60.75000000000001	1.0	100.0	1	84.38	0.0	0.0	0.0	0.0	0.0	0.0	0.0	0.0	0.0	0.0	0.0	84.375				
	427	42.19	0.0	60.75000000000001	-60.75000000000001	1.0	100.0	1	84.38	0.0	0.0	0.0	0.0	0.0	0.0	0.0	0.0	0.0	0.0	0.0	84.375				
	428	42.19	0.0	60.75000000000001	-60.75000000000001	1.0	100.0	1	84.38	0.0	0.0	0.0	0.0	0.0	0.0	0.0	0.0	0.0	0.0	0.0	84.375				
	430	181.875	0.0	327.38	-327.38	1.0	100.0	1	363.75	0.0	0.0	0.0	0.0	0.0	0.0	0.0	0.0	0.0	0.0	0.0	363.75				
	431	181.875	0.0	327.38	-327.38	1.0	100.0	1	363.75	0.0	0.0	0.0	0.0	0.0	0.0	0.0	0.0	0.0	0.0	0.0	363.75				
	432	109.68500000000002	0.0	157.95	-157.95	1.0	100.0	1	219.37000000000003	0.0	0.0	0.0	0.0	0.0	0.0	0.0	0.0	0.0	0.0	0.0	219.375				
	433	109.68500000000002	0.0	157.95	-157.95	1.0	100.0	1	219.37000000000003	0.0	0.0	0.0	0.0	0.0	0.0	0.0	0.0	0.0	0.0	0.0	219.375				
	444	343.92	0.0	18.95	-18.95	1.0	100.0	1	412.7	275.14	0.0	0.0	0.0	0.0	0.0	0.0	0.0	0.0	0.0	0.0	412.705				
	445	273.3	-16.55	132.39	-165.49	1.0	100.0	1	342.01	204.59	0.0	0.0	0.0	0.0	0.0	0.0	0.0	0.0	0.0	0.0	342.005				
	452	213.585	0.0	384.45	-384.45	1.0	100.0	1	427.17	0.0	0.0	0.0	0.0	0.0	0.0	0.0	0.0	0.0	0.0	0.0	427.171				
	453	213.49999999999997	0.0	384.3	-384.3	1.0	100.0	1	426.99999999999994	0.0	0.0	0.0	0.0	0.0	0.0	0.0	0.0	0.0	0.0	0.0	427.003				
	455	213.20999999999998	0.0	383.78	-383.78	1.0	100.0	1	426.41999999999996	0.0	0.0	0.0	0.0	0.0	0.0	0.0	0.0	0.0	0.0	0.0	426.422				
	456	213.235	0.0	383.82	-383.82	1.0	100.0	1	426.47	0.0	0.0	0.0	0.0	0.0	0.0	0.0	0.0	0.0	0.0	0.0	426.467				
	457	174.75	0.0	314.55	-314.55	1.0	100.0	1	349.5	0.0	0.0	0.0	0.0	0.0	0.0	0.0	0.0	0.0	0.0	0.0	349.5				
	458	174.75	0.0	314.55	-314.55	1.0	100.0	1	349.5	0.0	0.0	0.0	0.0	0.0	0.0	0.0	0.0	0.0	0.0	0.0	349.5				
	459	213.0	0.0	383.4	-383.4	1.0	100.0	1	426.0	0.0	0.0	0.0	0.0	0.0	0.0	0.0	0.0	0.0	0.0	0.0	426.0				
	460	172.5	0.0	310.5	-310.5	1.0	100.0	1	345.0	0.0	0.0	0.0	0.0	0.0	0.0	0.0	0.0	0.0	0.0	0.0	345.0				
	461	172.5	0.0	310.5	-310.5	1.0	100.0	1	345.0	0.0	0.0	0.0	0.0	0.0	0.0	0.0	0.0	0.0	0.0	0.0	345.0				
	462	213.44	0.0	384.19	-384.19	1.0	100.0	1	426.88	0.0	0.0	0.0	0.0	0.0	0.0	0.0	0.0	0.0	0.0	0.0	426.88				
	464	213.47	0.0	384.25	-384.25	1.0	100.0	1	426.94	0.0	0.0	0.0	0.0	0.0	0.0	0.0	0.0	0.0	0.0	0.0	426.944				
	465	213.47	0.0	384.25	-384.25	1.0	100.0	1	426.94	0.0	0.0	0.0	0.0	0.0	0.0	0.0	0.0	0.0	0.0	0.0	426.944				
	466	0.0	0.0	33.33	-33.33	1.0	100.0	0	397.21	382.21	0.0	0.0	0.0	0.0	0.0	0.0	0.0	0.0	0.0	0.0	397.208				
	467	0.0	0.0	33.33	-33.33	1.0	100.0	0	300.0	0.0	0.0	0.0	0.0	0.0	0.0	0.0	0.0	0.0	0.0	0.0	300.0				
	468	279.815	-6.13	49.06	-61.31999999999999	1.0	100.0	1	398.37	161.26	0.0	0.0	0.0	0.0	0.0	0.0	0.0	0.0	0.0	0.0	398.372				
	469	0.0	0.0	33.33	-33.33	1.0	100.0	0	297.0	0.0	0.0	0.0	0.0	0.0	0.0	0.0	0.0	0.0	0.0	0.0	297.0				
	469	0.0	0.0	33.33	-33.33	1.0	100.0	0	299.0	0.0	0.0	0.0	0.0	0.0	0.0	0.0	0.0	0.0	0.0	0.0	299.0				
	469	463.885	0.0	213.75000000000003	-213.75000000000003	1.0	100.0	1	789.51	138.26	0.0	0.0	0.0	0.0	0.0	0.0	0.0	0.0	0.0	0.0	789.511				
	470	946.055	-10.28	82.22	-102.78	1.0	100.0	1	1109.15	782.96	0.0	0.0	0.0	0.0	0.0	0.0	0.0	0.0	0.0	0.0	1109.155				
	471	0.0	0.0	33.33	-33.33	1.0	100.0	0	893.59	878.59	0.0	0.0	0.0	0.0	0.0	0.0	0.0	0.0	0.0	0.0	893.593				
	478	0.0	0.0	33.33	-33.33	1.0	100.0	0	113.16	98.16	0.0	0.0	0.0	0.0	0.0	0.0	0.0	0.0	0.0	0.0	113.164				
	480	312.0	0.0	561.6	-561.6	1.0	100.0	1	624.0	0.0	0.0	0.0	0.0	0.0	0.0	0.0	0.0	0.0	0.0	0.0	623.996				
	488	149.875	0.0	31.25	-31.25	1.0	100.0	1	173.61	126.14000000000001	0.0	0.0	0.0	0.0	0.0	0.0	0.0	0.0	0.0	0.0	173.611				
	489	141.985	0.0	137.78	-137.78	1.0	100.0	1	173.37	110.6	0.0	0.0	0.0	0.0	0.0	0.0	0.0	0.0	0.0	0.0	173.374				
	503	0.0	0.0	33.33	-33.33	1.0	100.0	0	300.0	0.0	0.0	0.0	0.0	0.0	0.0	0.0	0.0	0.0	0.0	0.0	300.0				
	507	23.345	1.59	15.909999999999998	-12.73	1.0	100.0	1	38.25	8.44	0.0	0.0	0.0	0.0	0.0	0.0	0.0	0.0	0.0	0.0	38.249				
	509	44.5	-71.4	41.2	-184.0	1.0	78.0	1	78.0	11.0	0.0	0.0	0.0	0.0	0.0	0.0	0.0	0.0	0.0	0.0	78.0				
	527	53.625	-60.75000000000001	52.5	-174.0	1.0	83.96	1	86.25	21.0	0.0	0.0	0.0	0.0	0.0	0.0	0.0	0.0	0.0	0.0	86.25				
	546	134.36	62.5	131.0	-6.0	1.0	258.66	1	268.72	0.0	0.0	0.0	0.0	0.0	0.0	0.0	0.0	0.0	0.0	0.0	268.721				
	558	15.895000000000001	2.5	190.0	-185.0	1.0	100.0	1	27.169999999999998	4.62	0.0	0.0	0.0	0.0	0.0	0.0	0.0	0.0	0.0	0.0	27.174				
	580	0.0	0.0	33.33	-33.33	1.0	100.0	0	84.81	69.81	0.0	0.0	0.0	0.0	0.0	0.0	0.0	0.0	0.0	0.0	84.808				
...
];

%% branch data
%    f_bus    t_bus    r    x    b    rateA    rateB    rateC    ratio    angle    status    angmin    angmax
mpc.branch = [
	1	2	2.0e-5	0.00021	0.0	876.0	876.0	876.0	0	0	1	-29.999999999999996	29.999999999999996								
	1	10	0.00593	0.04093	0.07215	341.0	341.0	341.0	0	0	1	-29.999999999999996	29.999999999999996								
	11	1	0.00287	0.10711	0.0	100.0	100.0	100.0	1.00972	0.0	1	-29.999999999999996	29.999999999999996								
	12	2	0.0014	0.06927	0.0	160.0	160.0	160.0	0.99664	0.0	1	-29.999999999999996	29.999999999999996								
	2	507	0.0001	0.01	0.0	83.7	98.6	125.55000000000001	0	0	1	-29.999999999999996	29.999999999999996								
	3	4	2.0e-5	0.00021	0.0	876.0	876.0	876.0	0	0	1	-29.999999999999996	29.999999999999996								
	3	8	0.00777	0.04128	0.06391	197.0	197.0	197.0	0	0	1	-29.999999999999996	29.999999999999996								
	4	1027	0.0001	0.01	0.0	198.78	238.53999999999996	298.17	0	0	1	-29.999999999999996	29.999999999999996								
	5	6	2.0e-5	0.00021	0.0	876.0	876.0	876.0	0	0	1	-29.999999999999996	29.999999999999996								
	5	9	0.00488	0.03362	0.05961	341.0	341.0	341.0	0	0	1	-29.999999999999996	29.999999999999996								
	26	5	0.0014	0.06831	0.0	160.0	160.0	160.0	1.03811	0.0	1	-29.999999999999996	29.999999999999996								
	6	217	0.0001	0.01	0.0	445.51	534.61	668.26	0	0	1	-29.999999999999996	29.999999999999996								
	7	8	2.0e-5	0.00021	0.0	876.0	876.0	876.0	0	0	1	-29.999999999999996	29.999999999999996								
	7	10	0.00455	0.03157	0.05531	231.0	231.0	231.0	0	0	1	-29.999999999999996	29.999999999999996								
	46	7	0.00152	0.06749	0.0	160.0	160.0	160.0	1.06341	0.0	1	-29.999999999999996	29.999999999999996								
	9	10	2.0e-5	0.00021	0.0	876.0	876.0	876.0	0	0	1	-29.999999999999996	29.999999999999996								
	9	2095	0.0001	0.01	0.0	140.51	168.61	210.75999999999996	0	0	1	-29.999999999999996	29.999999999999996								
	10	68	0.00139	0.06852	0.0	160.0	160.0	160.0	1.0224	0.0	1	-29.999999999999996	29.999999999999996								
	69	10	0.00154	0.06811	0.0	160.0	160.0	160.0	1.04321	0.0	1	-29.999999999999996	29.999999999999996								
	11	23	0.03868	0.10116	0.0108	87.61	113.89	113.89	0	0	1	-29.999999999999996	29.999999999999996								
	11	26	0.00719	0.02248	0.00246	62.0	62.0	62.0	0	0	1	-29.999999999999996	29.999999999999996								
	11	43	0.01636	0.04132	0.0045	50.0	50.0	50.0	0	0	1	-29.999999999999996	29.999999999999996								
	12	14	0.00752	0.02207	0.00251	80.22	104.29000000000002	104.29000000000002	0	0	1	-29.999999999999996	29.999999999999996								
	12	25	0.00719	0.02256	0.00247	62.0	62.0	62.0	0	0	1	-29.999999999999996	29.999999999999996								
	13	59	0.02256	0.04314	0.004	49.0	49.0	49.0	0	0	1	-29.999999999999996	29.999999999999996								
	14	245	0.0001	0.01	0.0	83.7	98.6	125.55000000000001	0	0	1	-29.999999999999996	29.999999999999996								
	15	16	0.00058	0.00157	0.00021	75.0	75.0	75.0	0	0	1	-29.999999999999996	29.999999999999996								
	16	58	0.00107	0.00298	0.0004	112.72	146.54	146.54	0	0	1	-29.999999999999996	29.999999999999996								
	16	64	0.00182	0.00529	0.00071	111.39000000000001	144.81	144.81	0	0	1	-29.999999999999996	29.999999999999996								
	17	20	0.00496	0.0162	0.00164	75.0	75.0	75.0	0	0	1	-29.999999999999996	29.999999999999996								
	18	62	0.00033	0.00099	0.00013	75.0	75.0	75.0	0	0	1	-29.999999999999996	29.999999999999996								
	19	63	0.00033	0.00091	0.00012	75.0	75.0	75.0	0	0	1	-29.999999999999996	29.999999999999996								
	20	28	0.00934	0.0257	0.00253	63.0	63.0	63.0	0	0	1	-29.999999999999996	29.999999999999996								
	20	30	0.01504	0.04033	0.00401	63.0	63.0	63.0	0	0	1	-29.999999999999996	29.999999999999996								
	21	22	8.0e-5	0.00083	0.0	438.0	438.0	438.0	0	0	1	-29.999999999999996	29.999999999999996								
	21	44	0.00512	0.01669	0.00168	113.99999999999999	113.99999999999999	113.99999999999999	0	0	1	-29.999999999999996	29.999999999999996								
	22	46	0.02826	0.0924	0.00933	99.0	99.0	99.0	0	0	1	-29.999999999999996	29.999999999999996								
	24	46	0.01669	0.04364	0.00566	106.37999999999998	138.3	138.3	0	0	1	-29.999999999999996	29.999999999999996								
	24	271	0.0001	0.01	0.0	83.7	98.6	125.55000000000001	0	0	1	-29.999999999999996	29.999999999999996								
	25	26	8.0e-5	0.00083	0.0	438.0	438.0	438.0	0	0	1	-29.999999999999996	29.999999999999996								
	25	38	0.01595	0.0414	0.00404	50.0	50.0	50.0	0	0	1	-29.999999999999996	29.999999999999996								
	26	37	0.01595	0.04132	0.00403	50.0	50.0	50.0	0	0	1	-29.999999999999996	29.999999999999996								
	26	41	0.02926	0.0514	0.00489	39.0	39.0	39.0	0	0	1	-29.999999999999996	29.999999999999996								
	27	28	0.00554	0.00959	0.00095	47.0	47.0	47.0	0	0	1	-29.999999999999996	29.999999999999996								
	28	64	0.0057	0.01479	0.0015	63.0	63.0	63.0	0	0	1	-29.999999999999996	29.999999999999996								
	29	30	0.00017	0.00041	6.0e-5	75.0	75.0	75.0	0	0	1	-29.999999999999996	29.999999999999996								
	30	65	8.0e-5	0.00025	2.0e-5	75.0	75.0	75.0	0	0	1	-29.999999999999996	29.999999999999996								
	31	32	8.0e-5	0.00083	0.0	438.0	438.0	438.0	0	0	1	-29.999999999999996	29.999999999999996								
	31	69	0.01298	0.04074	0.0045	75.0	75.0	75.0	0	0	1	-29.999999999999996	29.999999999999996								
	32	530	0.0001	0.01	0.0	83.7	98.6	125.55000000000001	0	0	1	-29.999999999999996	29.999999999999996								
	33	34	0.00165	0.00537	0.00054	75.0	75.0	75.0	0	0	1	-29.999999999999996	29.999999999999996								
	34	54	0.01926	0.06198	0.00647	103.29000000000002	134.27	134.27	0	0	1	-29.999999999999996	29.999999999999996								
	34	68	0.01041	0.03388	0.00346	114.08	148.3	148.3	0	0	1	-29.999999999999996	29.999999999999996								
	35	37	0.0005	0.00107	0.00014	28.999999999999996	28.999999999999996	28.999999999999996	0	0	1	-29.999999999999996	29.999999999999996								
	36	38	0.0005	0.00116	0.00014	28.999999999999996	28.999999999999996	28.999999999999996	0	0	1	-29.999999999999996	29.999999999999996								
	37	64	0.03174	0.08347	0.00816	50.0	50.0	50.0	0	0	1	-29.999999999999996	29.999999999999996								
	38	65	0.03174	0.08347	0.00816	50.0	50.0	50.0	0	0	1	-29.999999999999996	29.999999999999996								
	39	66	0.03826	0.04818	0.00455	83.83	100.59	125.73999999999998	0	0	1	-29.999999999999996	29.999999999999996								
	39	1234	0.0001	0.01	0.0	83.7	98.6	125.55000000000001	0	0	1	-29.999999999999996	29.999999999999996								
	40	41	8.0e-5	0.00083	0.0	438.0	438.0	438.0	0	0	1	-29.999999999999996	29.999999999999996								
	40	59	0.04025	0.07132	0.00662	47.0	47.0	47.0	0	0	1	-29.999999999999996	29.999999999999996								
	42	43	0.00058	0.00099	0.0001	28.999999999999996	28.999999999999996	28.999999999999996	0	0	1	-29.999999999999996	29.999999999999996								
	43	2259	0.0001	0.01	0.0	83.7	98.6	125.55000000000001	0	0	1	-29.999999999999996	29.999999999999996								
	44	45	8.0e-5	0.00083	0.0	438.0	438.0	438.0	0	0	1	-29.999999999999996	29.999999999999996								
	44	1951	0.0001	0.01	0.0	83.7	98.6	125.55000000000001	0	0	1	-29.999999999999996	29.999999999999996								
	45	52	0.03438	0.11107	0.01156	99.0	99.0	99.0	0	0	1	-29.999999999999996	29.999999999999996								
	45	70	0.01041	0.03405	0.00418	113.99999999999999	113.99999999999999	113.99999999999999	0	0	1	-29.999999999999996	29.999999999999996								
	46	49	0.03488	0.0881	0.01298	117.72	141.26	176.58	0	0	1	-29.999999999999996	29.999999999999996								
	46	53	0.00669	0.0162	0.00254	156.14	187.36	234.20000000000002	0	0	1	-29.999999999999996	29.999999999999996								
	46	2246	0.0001	0.01	0.0	83.7	98.6	125.55000000000001	0	0	1	-29.999999999999996	29.999999999999996								
	47	48	8.0e-5	0.00083	0.0	438.0	438.0	438.0	0	0	1	-29.999999999999996	29.999999999999996								
	47	69	0.0038	0.01083	0.00145	75.0	75.0	75.0	0	0	1	-29.999999999999996	29.999999999999996								
	48	61	0.00711	0.02074	0.00265	75.0	75.0	75.0	0	0	1	-29.999999999999996	29.999999999999996								
	49	1344	0.0001	0.01	0.0	83.7	98.6	125.55000000000001	0	0	1	-29.999999999999996	29.999999999999996								
	50	51	0.00017	0.00041	5.0e-5	75.0	75.0	75.0	0	0	1	-29.999999999999996	29.999999999999996								
	51	57	0.00066	0.00107	0.00018	97.82	117.38	146.73	0	0	1	-29.999999999999996	29.999999999999996								
	51	59	0.02702	0.05752	0.00544	97.82	117.39	146.73	0	0	1	-29.999999999999996	29.999999999999996								
	52	69	0.0262	0.08496	0.00871	99.0	99.0	99.0	0	0	1	-29.999999999999996	29.999999999999996								
	53	2148	0.0001	0.01	0.0	126.86	152.24	190.29	0	0	1	-29.999999999999996	29.999999999999996								
	54	55	8.0e-5	0.00083	0.0	438.0	438.0	438.0	0	0	1	-29.999999999999996	29.999999999999996								
	55	64	0.00231	0.00744	0.00077	75.0	75.0	75.0	0	0	1	-29.999999999999996	29.999999999999996								
	56	57	8.0e-5	0.00083	0.0	438.0	438.0	438.0	0	0	1	-29.999999999999996	29.999999999999996								
	56	66	0.00727	0.00975	0.00189	69.52	90.38	90.38	0	0	1	-29.999999999999996	29.999999999999996								
	58	2244	0.0001	0.01	0.0	83.7	98.6	125.55000000000001	0	0	1	-29.999999999999996	29.999999999999996								
	59	68	0.0119	0.03686	0.00418	129.05	154.86	193.58	0	0	1	-29.999999999999996	29.999999999999996								
	60	61	0.00124	0.00347	0.00046	75.0	75.0	75.0	0	0	1	-29.999999999999996	29.999999999999996								
	62	63	8.0e-5	0.00083	0.0	438.0	438.0	438.0	0	0	1	-29.999999999999996	29.999999999999996								
	62	65	0.01008	0.03182	0.00345	75.0	75.0	75.0	0	0	1	-29.999999999999996	29.999999999999996								
	63	68	0.0176	0.05686	0.00587	97.87	127.23	127.23	0	0	1	-29.999999999999996	29.999999999999996								
	66	67	8.0e-5	0.00083	0.0	438.0	438.0	438.0	0	0	1	-29.999999999999996	29.999999999999996								
	67	1980	0.0001	0.01	0.0	83.7	98.6	125.55000000000001	0	0	1	-29.999999999999996	29.999999999999996								
	71	72	2.0e-5	0.00021	0.0	876.0	876.0	876.0	0	0	1	-29.999999999999996	29.999999999999996								
	71	76	0.00568	0.04012	0.07033	317.0	317.0	317.0	0	0	1	-29.999999999999996	29.999999999999996								
	71	81	0.00105	0.00733	0.01258	231.0	231.0	231.0	0	0	1	-29.999999999999996	29.999999999999996								
	96	71	0.00151	0.06688	0.0	160.0	160.0	160.0	1.05123	0.0	1	-29.999999999999996	29.999999999999996								
	73	74	2.0e-5	0.00021	0.0	876.0	876.0	876.0	0	0	1	-29.999999999999996	29.999999999999996								
	73	75	0.01062	0.0789	0.12085	631.86	821.42	821.42	0	0	1	-29.999999999999996	29.999999999999996								
	73	78	0.01058	0.07762	0.12203	596.86	775.92	775.92	0	0	1	-29.999999999999996	29.999999999999996								
	98	73	0.00161	0.06653	0.0	160.0	160.0	160.0	1.05213	0.0	1	-29.999999999999996	29.999999999999996								
	99	73	0.00161	0.06653	0.0	160.0	160.0	160.0	1.04832	0.0	1	-29.999999999999996	29.999999999999996								
	75	76	2.0e-5	0.00021	0.0	876.0	876.0	876.0	0	0	1	-29.999999999999996	29.999999999999996								
	75	79	0.00469	0.03486	0.05338	317.0	317.0	317.0	0	0	1	-29.999999999999996	29.999999999999996								
	75	150	0.0018	0.01616	0.0484	754.02	980.2200000000001	980.2200000000001	0	0	1	-29.999999999999996	29.999999999999996								
	76	77	0.00064	0.0305	0.0	709.38	922.2000000000002	922.2000000000002	1.07408	0.0	1	-29.999999999999996	29.999999999999996								
	105	76	0.00163	0.06136	0.0	160.0	160.0	160.0	1.0215	0.0	1	-29.999999999999996	29.999999999999996								
	76	150	0.0018	0.01616	0.0484	734.76	955.1899999999999	955.1899999999999	0	0	1	-29.999999999999996	29.999999999999996								
	77	1621	0.0001	0.01	0.0	399.91	479.89	599.86	0	0	1	-29.999999999999996	29.999999999999996								
	78	581	0.0001	0.01	0.0	135.61	162.73	203.41	0	0	1	-29.999999999999996	29.999999999999996								
	79	80	2.0e-5	0.00021	0.0	876.0	876.0	876.0	0	0	1	-29.999999999999996	29.999999999999996								
	79	82	0.00744	0.05397	0.09307	231.0	231.0	231.0	0	0	1	-29.999999999999996	29.999999999999996								
	112	79	0.00029	0.06136	0.0	160.0	160.0	160.0	1.03619	0.0	1	-29.999999999999996	29.999999999999996								
	113	79	0.00165	0.0686	0.0	160.0	160.0	160.0	1.03344	0.0	1	-29.999999999999996	29.999999999999996								
	81	82	2.0e-5	0.00021	0.0	876.0	876.0	876.0	0	0	1	-29.999999999999996	29.999999999999996								
	120	81	0.00281	0.10601	0.0	100.0	100.0	100.0	0.99686	0.0	1	-29.999999999999996	29.999999999999996								
	121	82	0.00281	0.10601	0.0	100.0	100.0	100.0	0.99669	0.0	1	-29.999999999999996	29.999999999999996								
	83	108	0.01011	0.03425	0.00339	123.0	123.0	123.0	0	0	1	-29.999999999999996	29.999999999999996								
	83	124	0.00228	0.00772	0.00076	120.0	120.0	120.0	0	0	1	-29.999999999999996	29.999999999999996								
	84	114	0.0138	0.02421	0.0023	90.58	117.75	117.75	0	0	1	-29.999999999999996	29.999999999999996								
	84	143	0.01877	0.03282	0.00313	107.46	139.7	139.7	0	0	1	-29.999999999999996	29.999999999999996								
	85	92	9.0e-5	0.00069	7.0e-5	186.5	242.45000000000002	242.45000000000002	0	0	1	-29.999999999999996	29.999999999999996								
	85	101	0.00555	0.01818	0.00186	148.68	193.28	193.28	0	0	1	-29.999999999999996	29.999999999999996								
	86	140	0.02182	0.07107	0.00737	120.0	120.0	120.0	0	0	1	-29.999999999999996	29.999999999999996								
	86	1637	0.0001	0.01	0.0	146.4	175.68	219.59999999999997	0	0	1	-29.999999999999996	29.999999999999996								
	87	113	0.05033	0.13388	0.01203	61.0	61.0	61.0	0	0	1	-29.999999999999996	29.999999999999996								
	87	141	0.02851	0.09843	0.00896	120.0	120.0	120.0	0	0	1	-29.999999999999996	29.999999999999996								
	88	91	0.02174	0.05	0.00501	108.59999999999998	141.17	141.17	0	0	1	-29.999999999999996	29.999999999999996								
	88	107	0.03471	0.06744	0.00663	104.91999999999999	136.39	136.39	0	0	1	-29.999999999999996	29.999999999999996								
	89	101	0.02058	0.0676	0.00569	164.41	197.3	246.62	0	0	1	-29.999999999999996	29.999999999999996								
	89	112	0.01983	0.05504	0.00595	76.0	76.0	76.0	0	0	1	-29.999999999999996	29.999999999999996								
	89	123	0.00926	0.0186	0.00181	76.0	76.0	76.0	0	0	1	-29.999999999999996	29.999999999999996								
	89	144	0.00375	0.01025	0.00103	102.0	102.0	102.0	0	0	1	-29.999999999999996	29.999999999999996								
	90	107	0.04669	0.09545	0.00939	120.63	156.82	156.82	0	0	1	-29.999999999999996	29.999999999999996								
	90	663	0.0001	0.01	0.0	83.7	98.6	125.55000000000001	0	0	1	-29.999999999999996	29.999999999999996								
	91	135	0.04463	0.09421	0.00963	92.49	120.24	120.24	0	0	1	-29.999999999999996	29.999999999999996								
	92	93	8.0e-5	0.00083	0.0	438.0	438.0	438.0	0	0	1	-29.999999999999996	29.999999999999996								
	92	105	0.00064	0.00483	0.00047	185.52	222.62	278.28	0	0	1	-29.999999999999996	29.999999999999996								
	92	140	0.01289	0.04198	0.00436	120.0	120.0	120.0	0	0	1	-29.999999999999996	29.999999999999996								
	94	119	0.04152	0.07429	0.0071	51.83	67.38	67.38	0	0	1	-29.999999999999996	29.999999999999996								
	94	127	0.05017	0.08774	0.00837	39.0	39.0	39.0	0	0	1	-29.999999999999996	29.999999999999996								
	95	104	0.06926	0.12157	0.01174	78.0	78.0	78.0	0	0	1	-29.999999999999996	29.999999999999996								
	95	138	0.01818	0.05884	0.00612	120.0	120.0	120.0	0	0	1	-29.999999999999996	29.999999999999996								
	96	97	8.0e-5	0.00083	0.0	438.0	438.0	438.0	0	0	1	-29.999999999999996	29.999999999999996								
	96	118	0.0078	0.02641	0.00262	113.99999999999999	113.99999999999999	113.99999999999999	0	0	1	-29.999999999999996	29.999999999999996								
	96	124	0.0256	0.0784	0.00806	78.0	78.0	78.0	0	0	1	-29.999999999999996	29.999999999999996								
	96	129	0.00628	0.01058	0.00108	78.0	78.0	78.0	0	0	1	-29.999999999999996	29.999999999999996								
	96	137	0.0096	0.02474	0.00251	69.0	69.0	69.0	0	0	1	-29.999999999999996	29.999999999999996								
	97	108	0.00389	0.01319	0.00131	113.99999999999999	113.99999999999999	113.99999999999999	0	0	1	-29.999999999999996	29.999999999999996								
	97	148	0.01777	0.03157	0.00301	78.0	78.0	78.0	0	0	1	-29.999999999999996	29.999999999999996								
	98	103	0.0014	0.00463	0.00046	119.73	155.64	155.64	0	0	1	-29.999999999999996	29.999999999999996								
	98	2179	0.0001	0.01	0.0	161.43	193.71	242.14	0	0	1	-29.999999999999996	29.999999999999996								
	99	2172	0.0001	0.01	0.0	83.7	98.6	125.55000000000001	0	0	1	-29.999999999999996	29.999999999999996								
	100	111	0.06537	0.11488	0.01096	78.0	78.0	78.0	0	0	1	-29.999999999999996	29.999999999999996								
	100	146	0.03983	0.06967	0.00666	78.0	78.0	78.0	0	0	1	-29.999999999999996	29.999999999999996								
	102	122	0.01289	0.03372	0.00333	102.0	102.0	102.0	0	0	1	-29.999999999999996	29.999999999999996								
	102	125	0.00661	0.01826	0.00194	102.0	102.0	102.0	0	0	1	-29.999999999999996	29.999999999999996								
	103	143	0.05945	0.10398	0.00992	129.86	168.81	168.81	0	0	1	-29.999999999999996	29.999999999999996								
	104	128	0.03397	0.0581	0.00559	72.0	72.0	72.0	0	0	1	-29.999999999999996	29.999999999999996								
	106	126	0.04961	0.1096	0.01071	100.61	130.8	130.8	0	0	1	-29.999999999999996	29.999999999999996								
	106	145	0.00574	0.01944	0.00192	86.38	112.3	112.3	0	0	1	-29.999999999999996	29.999999999999996								
	109	112	0.02264	0.07355	0.00762	120.0	120.0	120.0	0	0	1	-29.999999999999996	29.999999999999996								
	110	113	0.02706	0.09164	0.00907	59.599999999999994	77.48	77.48	0	0	1	-29.999999999999996	29.999999999999996								
	110	119	0.02078	0.03802	0.00364	67.66	87.95	87.95	0	0	1	-29.999999999999996	29.999999999999996								
	111	127	0.03769	0.06554	0.00624	78.0	78.0	78.0	0	0	1	-29.999999999999996	29.999999999999996								
	112	128	0.0343	0.24545	0.02408	120.0	120.0	120.0	0	0	1	-29.999999999999996	29.999999999999996								
	112	131	0.00813	0.02214	0.00223	55.00000000000001	55.00000000000001	55.00000000000001	0	0	1	-29.999999999999996	29.999999999999996								
	112	145	0.00697	0.0236	0.00234	87.59	113.87	113.87	0	0	1	-29.999999999999996	29.999999999999996								
	113	130	0.00813	0.02214	0.00223	55.00000000000001	55.00000000000001	55.00000000000001	0	0	1	-29.999999999999996	29.999999999999996								
	113	135	0.0286	0.05322	0.00515	92.15	119.78999999999999	119.78999999999999	0	0	1	-29.999999999999996	29.999999999999996								
	113	149	0.04023	0.10277	0.01021	78.0	78.0	78.0	0	0	1	-29.999999999999996	29.999999999999996								
	114	126	0.04802	0.10264	0.01344	84.09	109.31	109.31	0	0	1	-29.999999999999996	29.999999999999996								
	115	143	0.02111	0.0715	0.00708	76.0	76.0	76.0	0	0	1	-29.999999999999996	29.999999999999996								
	116	128	0.02306	0.05736	0.00587	76.0	76.0	76.0	0	0	1	-29.999999999999996	29.999999999999996								
	116	134	0.01107	0.02744	0.00281	102.0	102.0	102.0	0	0	1	-29.999999999999996	29.999999999999996								
	117	138	0.01947	0.06595	0.00653	34.0	34.0	34.0	0	0	1	-29.999999999999996	29.999999999999996								
	118	139	0.00317	0.01073	0.00106	113.99999999999999	113.99999999999999	113.99999999999999	0	0	1	-29.999999999999996	29.999999999999996								
	120	121	8.0e-5	0.00083	0.0	438.0	438.0	438.0	0	0	1	-29.999999999999996	29.999999999999996								
	122	148	0.00818	0.02149	0.00212	102.0	102.0	102.0	0	0	1	-29.999999999999996	29.999999999999996								
	123	146	0.01314	0.02554	0.00246	78.0	78.0	78.0	0	0	1	-29.999999999999996	29.999999999999996								
	124	125	8.0e-5	0.00083	0.0	438.0	438.0	438.0	0	0	1	-29.999999999999996	29.999999999999996								
	124	136	0.00595	0.02016	0.002	76.0	76.0	76.0	0	0	1	-29.999999999999996	29.999999999999996								
	125	139	0.00486	0.01645	0.00163	120.0	120.0	120.0	0	0	1	-29.999999999999996	29.999999999999996								
	125	149	0.01173	0.03052	0.00303	78.0	78.0	78.0	0	0	1	-29.999999999999996	29.999999999999996								
	127	128	8.0e-5	0.00083	0.0	438.0	438.0	438.0	0	0	1	-29.999999999999996	29.999999999999996								
	127	142	0.02479	0.08041	0.00832	76.0	76.0	76.0	0	0	1	-29.999999999999996	29.999999999999996								
	132	142	0.00752	0.01835	0.00196	78.0	78.0	78.0	0	0	1	-29.999999999999996	29.999999999999996								
	133	134	0.00752	0.01835	0.00196	78.0	78.0	78.0	0	0	1	-29.999999999999996	29.999999999999996								
	136	144	0.01093	0.03048	0.00307	102.0	102.0	102.0	0	0	1	-29.999999999999996	29.999999999999996								
	144	147	0.00383	0.00669	0.00064	120.0	120.0	120.0	0	0	1	-29.999999999999996	29.999999999999996								
	151	152	0.00051	0.0275	0.0	400.0	400.0	400.0	1.07702	0.0	1	-29.999999999999996	29.999999999999996								
	152	153	1.0e-5	6.0e-5	0.0	1593.0	1593.0	1593.0	0	0	1	-29.999999999999996	29.999999999999996								
	152	164	0.00131	0.01547	0.41152	838.0000000000001	838.0000000000001	838.0000000000001	0	0	1	-29.999999999999996	29.999999999999996								
	153	463	0.0001	0.01	0.0	195.73	234.87	293.59	0	0	1	-29.999999999999996	29.999999999999996								
	154	155	1.0e-5	6.0e-5	0.0	1593.0	1593.0	1593.0	0	0	1	-29.999999999999996	29.999999999999996								
	156	154	0.00084	0.06858	0.0	250.0	250.0	250.0	0.9999	0.0	1	-29.999999999999996	29.999999999999996								
	154	158	0.00224	0.02606	0.70304	831.0	831.0	831.0	0	0	1	-29.999999999999996	29.999999999999996								
	154	216	0.00033	0.00388	0.10475	831.0	831.0	831.0	0	0	1	-29.999999999999996	29.999999999999996								
	155	160	0.0024	0.02795	0.75408	838.0000000000001	838.0000000000001	838.0000000000001	0	0	1	-29.999999999999996	29.999999999999996								
	155	166	0.00133	0.01553	0.41898	831.0	831.0	831.0	0	0	1	-29.999999999999996	29.999999999999996								
	172	155	0.00129	0.06437	0.0	250.0	250.0	250.0	1.10126	0.0	1	-29.999999999999996	29.999999999999996								
	173	156	0.00496	0.06982	0.0	64.99	84.49	84.49	0.98438	0.0	1	-29.999999999999996	29.999999999999996								
...
];

%%-----  OPF Data  -----%%
%% cost data
%    1    startup    shutdown    n    x1    y1    ...    xn    yn
%    2    startup    shutdown    n    c(n-1)    ...    c0
mpc.gencost = [
	2	0.0	0.0	2	15.444266	0.0
	2	0.0	0.0	2	24.488844	0.0
	2	0.0	0.0	2	27.387509	0.0
	2	0.0	0.0	2	25.831073000000004	0.0
	2	0.0	0.0	2	35.732917	0.0
	2	0.0	0.0	2	53.83751600000001	0.0
	2	0.0	0.0	2	119.23542500000002	0.0
	2	0.0	0.0	2	29.00884	0.0
	2	0.0	0.0	2	11.035106	0.0
	2	0.0	0.0	2	115.108034	0.0
	2	0.0	0.0	2	30.754884000000004	0.0
	2	0.0	0.0	2	104.52529500000001	0.0
	2	0.0	0.0	2	101.36108300000001	0.0
	2	0.0	0.0	2	25.65716	0.0
	2	0.0	0.0	2	25.468567	0.0
	2	0.0	0.0	2	35.375868	0.0
	2	0.0	0.0	2	38.96851	0.0
	2	0.0	0.0	2	25.686812	0.0
	2	0.0	0.0	2	24.739415	0.0
	2	0.0	0.0	2	33.242118	0.0
	2	0.0	0.0	2	25.682664	0.0
	2	0.0	0.0	2	24.30596	0.0
	2	0.0	0.0	2	18.66032	0.0
	2	0.0	0.0	2	29.999518	0.0
	2	0.0	0.0	2	36.469959	0.0
	2	0.0	0.0	2	35.10689	0.0
	2	0.0	0.0	2	90.390247	0.0
	2	0.0	0.0	2	43.253956	0.0
	2	0.0	0.0	2	42.862709	0.0
	2	0.0	0.0	2	23.847358	0.0
	2	0.0	0.0	2	33.811369	0.0
	2	0.0	0.0	2	36.801773	0.0
	2	0.0	0.0	2	25.551803	0.0
	2	0.0	0.0	2	97.096271	0.0
	2	0.0	0.0	2	31.289459	0.0
	2	0.0	0.0	2	29.53143	0.0
	2	0.0	0.0	2	25.577601	0.0
	2	0.0	0.0	2	35.839671	0.0
	2	0.0	0.0	2	109.59469100000001	0.0
	2	0.0	0.0	2	75.838561	0.0
	2	0.0	0.0	2	106.839511	0.0
	2	0.0	0.0	2	42.168357	0.0
	2	0.0	0.0	2	20.411491	0.0
	2	0.0	0.0	2	102.513436	0.0
	2	0.0	0.0	2	50.825648	0.0
	2	0.0	0.0	2	47.427488	0.0
	2	0.0	0.0	2	17.560676	0.0
	2	0.0	0.0	2	31.497926	0.0
	2	0.0	0.0	2	53.968846000000006	0.0
	2	0.0	0.0	2	29.446747000000002	0.0
	2	0.0	0.0	2	26.786756	0.0
	2	0.0	0.0	2	24.414856	0.0
	2	0.0	0.0	2	29.948518	0.0
	2	0.0	0.0	2	28.412676	0.0
	2	0.0	0.0	2	55.301877	0.0
	2	0.0	0.0	2	30.206383000000002	0.0
	2	0.0	0.0	2	23.813896	0.0
	2	0.0	0.0	2	46.008664	0.0
	2	0.0	0.0	2	41.750697	0.0
	2	0.0	0.0	2	48.712945	0.0
	2	0.0	0.0	2	16.441286	0.0
	2	0.0	0.0	2	46.203911	0.0
	2	0.0	0.0	2	45.377814	0.0
	2	0.0	0.0	2	25.856876000000003	0.0
	2	0.0	0.0	2	42.249859	0.0
	2	0.0	0.0	2	50.452144	0.0
	2	0.0	0.0	2	7.328937	0.0
	2	0.0	0.0	2	23.072783	0.0
	2	0.0	0.0	2	29.48666	0.0
	2	0.0	0.0	2	32.530716	0.0
	2	0.0	0.0	2	51.316488	0.0
	2	0.0	0.0	2	48.251328	0.0
	2	0.0	0.0	2	20.655326999999996	0.0
	2	0.0	0.0	2	24.770302	0.0
	2	0.0	0.0	2	31.740797000000004	0.0
	2	0.0	0.0	2	18.906077	0.0
	2	0.0	0.0	2	47.679948	0.0
	2	0.0	0.0	2	46.398098	0.0
	2	0.0	0.0	2	120.936533	0.0
	2	0.0	0.0	2	57.281961	0.0
	2	0.0	0.0	2	20.914827	0.0
	2	0.0	0.0	2	35.469509	0.0
	2	0.0	0.0	2	15.764905	0.0
	2	0.0	0.0	2	18.281221	0.0
	2	0.0	0.0	2	31.135564	0.0
	2	0.0	0.0	2	35.223256	0.0
	2	0.0	0.0	2	36.141603	0.0
	2	0.0	0.0	2	20.528527	0.0
	2	0.0	0.0	2	31.462014	0.0
	2	0.0	0.0	2	123.945797	0.0
	2	0.0	0.0	2	29.671228000000003	0.0
	2	0.0	0.0	2	34.038789	0.0
	2	0.0	0.0	2	18.861692	0.0
	2	0.0	0.0	2	22.470802	0.0
	2	0.0	0.0	2	30.650869000000004	0.0
	2	0.0	0.0	2	11.702808000000001	0.0
	2	0.0	0.0	2	40.640444	0.0
	2	0.0	0.0	2	110.078885	0.0
	2	0.0	0.0	2	27.058757	0.0
	2	0.0	0.0	2	38.802771	0.0
	2	0.0	0.0	2	45.519946	0.0
	2	0.0	0.0	2	56.355593	0.0
	2	0.0	0.0	2	24.140644	0.0
	2	0.0	0.0	2	37.621264	0.0
	2	0.0	0.0	2	41.516554	0.0
	2	0.0	0.0	2	29.400751	0.0
	2	0.0	0.0	2	37.035287	0.0
	2	0.0	0.0	2	14.959842000000002	0.0
	2	0.0	0.0	2	34.103289	0.0
	2	0.0	0.0	2	59.632282	0.0
	2	0.0	0.0	2	37.485949	0.0
	2	0.0	0.0	2	22.639653	0.0
	2	0.0	0.0	2	41.8914	0.0
	2	0.0	0.0	2	9.203497	0.0
	2	0.0	0.0	2	31.90011	0.0
	2	0.0	0.0	2	27.953906000000003	0.0
	2	0.0	0.0	2	43.993313	0.0
	2	0.0	0.0	2	20.935484	0.0
	2	0.0	0.0	2	25.311287000000004	0.0
	2	0.0	0.0	2	37.077604	0.0
	2	0.0	0.0	2	32.579796	0.0
	2	0.0	0.0	2	48.850190000000005	0.0
	2	0.0	0.0	2	37.893759	0.0
	2	0.0	0.0	2	38.799354	0.0
	2	0.0	0.0	2	33.937619	0.0
	2	0.0	0.0	2	22.231646	0.0
	2	0.0	0.0	2	15.11124	0.0
	2	0.0	0.0	2	23.127494	0.0
	2	0.0	0.0	2	53.388402	0.0
	2	0.0	0.0	2	16.707821	0.0
	2	0.0	0.0	2	14.332151	0.0
	2	0.0	0.0	2	36.251726	0.0
	2	0.0	0.0	2	39.670247	0.0
	2	0.0	0.0	2	39.748022	0.0
	2	0.0	0.0	2	46.114976	0.0
	2	0.0	0.0	2	30.11523	0.0
	2	0.0	0.0	2	33.499293	0.0
	2	0.0	0.0	2	33.470143	0.0
	2	0.0	0.0	2	43.612518	0.0
	2	0.0	0.0	2	43.536382	0.0
	2	0.0	0.0	2	37.903793	0.0
	2	0.0	0.0	2	26.668547	0.0
	2	0.0	0.0	2	32.056712	0.0
	2	0.0	0.0	2	33.199428	0.0
	2	0.0	0.0	2	17.226846	0.0
	2	0.0	0.0	2	39.185089	0.0
	2	0.0	0.0	2	26.349873	0.0
	2	0.0	0.0	2	39.533053	0.0
	2	0.0	0.0	2	35.928529	0.0
	2	0.0	0.0	2	45.432696	0.0
	2	0.0	0.0	2	43.220415	0.0
	2	0.0	0.0	2	34.20358	0.0
	2	0.0	0.0	2	19.713744	0.0
	2	0.0	0.0	2	53.554362000000005	0.0
	2	0.0	0.0	2	43.401942	0.0
	2	0.0	0.0	2	25.364837	0.0
	2	0.0	0.0	2	58.524484	0.0
	2	0.0	0.0	2	126.975192	0.0
	2	0.0	0.0	2	34.740217	0.0
	2	0.0	0.0	2	29.198984	0.0
	2	0.0	0.0	2	101.1023	0.0
	2	0.0	0.0	2	24.68479	0.0
	2	0.0	0.0	2	35.697484	0.0
	2	0.0	0.0	2	35.235034	0.0
	2	0.0	0.0	2	32.458432	0.0
	2	0.0	0.0	2	43.502328	0.0
	2	0.0	0.0	2	20.3287	0.0
	2	0.0	0.0	2	17.740519	0.0
	2	0.0	0.0	2	44.142229	0.0
	2	0.0	0.0	2	19.351431	0.0
	2	0.0	0.0	2	41.381319	0.0
	2	0.0	0.0	2	29.484934	0.0
	2	0.0	0.0	2	24.710731000000003	0.0
	2	0.0	0.0	2	24.198983	0.0
	2	0.0	0.0	2	33.091507	0.0
	2	0.0	0.0	2	42.122385	0.0
	2	0.0	0.0	2	22.328785	0.0
	2	0.0	0.0	2	33.602371	0.0
	2	0.0	0.0	2	31.711274	0.0
	2	0.0	0.0	2	36.528751	0.0
	2	0.0	0.0	2	21.654716	0.0
	2	0.0	0.0	2	41.861355	0.0
	2	0.0	0.0	2	23.660788000000004	0.0
	2	0.0	0.0	2	27.807403	0.0
	2	0.0	0.0	2	42.31487700000001	0.0
	2	0.0	0.0	2	44.649901	0.0
	2	0.0	0.0	2	7.445716	0.0
	2	0.0	0.0	2	26.01976	0.0
	2	0.0	0.0	2	25.487575000000003	0.0
	2	0.0	0.0	2	26.421133	0.0
	2	0.0	0.0	2	23.187235	0.0
	2	0.0	0.0	2	24.668888	0.0
	2	0.0	0.0	2	45.814371	0.0
	2	0.0	0.0	2	26.594627000000003	0.0
	2	0.0	0.0	2	30.362641	0.0
...